 
data_LiRbHC3N3O3_2H2O
 
_audit_creation_method            'SHELXL-2014/7'
_shelx_SHELXL_version_number      '2014/7'
_chemical_name_systematic         ?
_chemical_name_common             ?
_chemical_melting_point           ?
_chemical_formula_moiety          ?
_chemical_formula_sum
 'C3 H4 Cs0 Li N3 O5 Rb' 
_chemical_formula_weight          254.50

loop_
 _atom_type_symbol
 _atom_type_description
 _atom_type_scat_dispersion_real
 _atom_type_scat_dispersion_imag
 _atom_type_scat_source
 'C'  'C'   0.0033   0.0016
 'International Tables Vol C Tables 4.2.6.8 and 6.1.1.4'
 'H'  'H'   0.0000   0.0000
 'International Tables Vol C Tables 4.2.6.8 and 6.1.1.4'
 'Cs'  'Cs'  -0.3680   2.1192
 'International Tables Vol C Tables 4.2.6.8 and 6.1.1.4'
 'Li'  'Li'  -0.0003   0.0001
 'International Tables Vol C Tables 4.2.6.8 and 6.1.1.4'
 'N'  'N'   0.0061   0.0033
 'International Tables Vol C Tables 4.2.6.8 and 6.1.1.4'
 'O'  'O'   0.0106   0.0060
 'International Tables Vol C Tables 4.2.6.8 and 6.1.1.4'
 'Rb'  'Rb'  -0.9393   2.9676
 'International Tables Vol C Tables 4.2.6.8 and 6.1.1.4'
 
_space_group_crystal_system       orthorhombic
_space_group_IT_number            33
_space_group_name_H-M_alt         'P n a 21'
_space_group_name_Hall            'P 2c -2n'
 
_shelx_space_group_comment
;
The symmetry employed for this shelxl refinement is uniquely defined
by the following loop, which should always be used as a source of
symmetry information in preference to the above space-group names.
They are only intended as comments.
;
 
loop_
 _space_group_symop_operation_xyz
 'x, y, z'
 '-x, -y, z+1/2'
 'x+1/2, -y+1/2, z'
 '-x+1/2, y+1/2, z+1/2'
 
_cell_length_a                    15.689(3)
_cell_length_b                    3.7585(8)
_cell_length_c                    12.759(2)
_cell_angle_alpha                 90
_cell_angle_beta                  90
_cell_angle_gamma                 90
_cell_volume                      752.4(3)
_cell_formula_units_Z             4
_cell_measurement_temperature     273(2)
_cell_measurement_reflns_used     2992
_cell_measurement_theta_min       2.60
_cell_measurement_theta_max      27.16
 
_exptl_crystal_description        block
_exptl_crystal_colour             colorless
_exptl_crystal_density_meas       ?
_exptl_crystal_density_method     ?
_exptl_crystal_density_diffrn     2.247          
_exptl_crystal_F_000              492
_exptl_transmission_factor_min     0.4716
_exptl_transmission_factor_max     0.7456
_exptl_crystal_size_max           ?
_exptl_crystal_size_mid           ?
_exptl_crystal_size_min           ?
_exptl_absorpt_coefficient_mu     6.571
_shelx_estimated_absorpt_T_min    ?
_shelx_estimated_absorpt_T_max    ?
_exptl_absorpt_correction_type   multi-scan
_exptl_absorpt_correction_T_min   ?
_exptl_absorpt_correction_T_max   ?
_exptl_absorpt_process_details    ?
_exptl_absorpt_special_details    ?
_diffrn_ambient_temperature       273(2)
_diffrn_radiation_wavelength      0.71073
_diffrn_radiation_type            MoK\a
_diffrn_source                    ?
_diffrn_measurement_device_type    'Bruker APEX-II CCD'
_diffrn_measurement_method         '\f and \w scans'
_diffrn_detector_area_resol_mean  ?
_diffrn_reflns_number             9271
_diffrn_reflns_av_unetI/netI      0.0624
_diffrn_reflns_av_R_equivalents   0.0852
_diffrn_reflns_limit_h_min        -20
_diffrn_reflns_limit_h_max        20
_diffrn_reflns_limit_k_min        -4
_diffrn_reflns_limit_k_max        4
_diffrn_reflns_limit_l_min        -16
_diffrn_reflns_limit_l_max        16
_diffrn_reflns_theta_min          2.596
_diffrn_reflns_theta_max          27.685
_diffrn_reflns_theta_full         25.242
_diffrn_measured_fraction_theta_max   0.997
_diffrn_measured_fraction_theta_full  0.999
_diffrn_reflns_Laue_measured_fraction_max    0.997
_diffrn_reflns_Laue_measured_fraction_full   0.999
_diffrn_reflns_point_group_measured_fraction_max   0.997
_diffrn_reflns_point_group_measured_fraction_full  0.999
_reflns_number_total              1726
_reflns_number_gt                 1416
_reflns_threshold_expression      'I > 2\s(I)'
_reflns_Friedel_coverage          0.915
_reflns_Friedel_fraction_max      0.996
_reflns_Friedel_fraction_full     0.998
 
_reflns_special_details
;
 Reflections were merged by SHELXL according to the crystal
 class for the calculation of statistics and refinement.
 
 _reflns_Friedel_fraction is defined as the number of unique
 Friedel pairs measured divided by the number that would be
 possible theoretically, ignoring centric projections and
 systematic absences.
;
 
_computing_data_collection        'Bruker APEX2'
_computing_cell_refinement        'Bruker SAINT'
_computing_data_reduction       'Bruker SAINT'
_computing_structure_solution      'SHELXS-97 (Sheldrick 2008)'
_computing_structure_refinement 'SHELXL-2014/7 (Sheldrick, 2014)'
_computing_molecular_graphics    'Bruker SHELXTL'
_computing_publication_material  'Bruker SHELXTL'
_refine_special_details
;
 Refined as a 2-component inversion twin.
;
_refine_ls_structure_factor_coef  Fsqd
_refine_ls_matrix_type            full
_refine_ls_weighting_scheme       calc
_refine_ls_weighting_details
'w=1/[\s^2^(Fo^2^)+(0.0486P)^2^+0.9945P] where P=(Fo^2^+2Fc^2^)/3'
_atom_sites_solution_primary      ?
_atom_sites_solution_secondary    ?
_atom_sites_solution_hydrogens    mixed
_refine_ls_hydrogen_treatment     mixed
_refine_ls_extinction_method      none
_refine_ls_extinction_coef        .
_refine_ls_abs_structure_details
;
 Refined as an inversion twin.
;
_refine_ls_abs_structure_Flack    0.07(3)
_chemical_absolute_configuration  ?
_refine_ls_number_reflns          1726
_refine_ls_number_parameters      131
_refine_ls_number_restraints      1
_refine_ls_R_factor_all           0.0619
_refine_ls_R_factor_gt            0.0459
_refine_ls_wR_factor_ref          0.1095
_refine_ls_wR_factor_gt           0.1029
_refine_ls_goodness_of_fit_ref    1.082
_refine_ls_restrained_S_all       1.081
_refine_ls_shift/su_max           0.000
_refine_ls_shift/su_mean          0.000
 
loop_
 _atom_site_label
 _atom_site_type_symbol
 _atom_site_fract_x
 _atom_site_fract_y
 _atom_site_fract_z
 _atom_site_U_iso_or_equiv
 _atom_site_adp_type
 _atom_site_occupancy
 _atom_site_site_symmetry_order  
 _atom_site_calc_flag
 _atom_site_refinement_flags_posn
 _atom_site_refinement_flags_adp
 _atom_site_refinement_flags_occupancy
 _atom_site_disorder_assembly
 _atom_site_disorder_group
Rb01 Rb 0.65573(5) 0.04082(18) 0.67954(9) 0.0288(3) Uani 1 1 d . . . . .
H1 H 0.489(10) 0.17(4) 0.356(11) 0.06(4) Uiso 1 1 d . . . . .
Li1 Li 0.1855(15) 1.469(5) 0.3304(16) 0.039(4) Uani 1 1 d . . . . .
O1 O 0.5212(7) 0.033(2) 0.3169(8) 0.051(3) Uani 1 1 d . . . . .
N1 N 0.3029(5) 0.720(2) 0.5149(7) 0.0253(17) Uani 1 1 d . . . . .
O002 O 0.2992(3) 0.9511(15) 0.6800(10) 0.0284(12) Uani 1 1 d . . . . .
H2 H 0.508(7) -0.14(3) 0.335(9) 0.02(3) Uiso 1 1 d . . . . .
N2 N 0.4367(5) 0.493(2) 0.4518(7) 0.0253(17) Uani 1 1 d . . . . .
O003 O 0.3176(5) 0.480(2) 0.3537(6) 0.0305(17) Uani 1 1 d . . . . .
O004 O 0.1678(6) 0.991(3) 0.4009(9) 0.033(3) Uani 1 1 d . . . . .
H4 H 0.203(7) 0.96(2) 0.430(8) 0.00(2) Uiso 1 1 d . . . . .
O005 O 0.5512(4) 0.5293(19) 0.5611(6) 0.0323(16) Uani 1 1 d . . . . .
C007 C 0.3536(7) 0.558(4) 0.4377(11) 0.025(3) Uani 1 1 d . . . . .
C00B C 0.4727(5) 0.577(2) 0.5423(8) 0.0227(19) Uani 1 1 d . . . . .
N1A N 0.4249(4) 0.731(2) 0.6193(7) 0.0282(18) Uani 1 1 d . . . . .
H1A H 0.4485 0.7805 0.6783 0.034 Uiso 1 1 calc R U . . .
C00C C 0.3392(5) 0.810(3) 0.6052(8) 0.0252(19) Uani 1 1 d . . . . .
 
loop_
 _atom_site_aniso_label
 _atom_site_aniso_U_11
 _atom_site_aniso_U_22
 _atom_site_aniso_U_33
 _atom_site_aniso_U_23
 _atom_site_aniso_U_13
 _atom_site_aniso_U_12
Rb01 0.0181(4) 0.0300(4) 0.0385(5) -0.0009(13) -0.0033(6) -0.0002(3)
Li1 0.058(13) 0.027(10) 0.031(9) 0.005(8) 0.005(9) 0.000(8)
O1 0.070(7) 0.029(5) 0.054(6) 0.003(4) 0.036(5) 0.002(4)
N1 0.010(3) 0.036(5) 0.031(4) -0.002(4) 0.000(3) 0.001(3)
O002 0.014(2) 0.044(3) 0.027(3) -0.008(6) -0.001(5) 0.005(2)
N2 0.015(4) 0.032(5) 0.029(4) -0.004(3) 0.000(3) 0.001(3)
O003 0.020(3) 0.043(5) 0.029(4) -0.006(3) -0.005(3) -0.003(3)
O004 0.006(3) 0.057(7) 0.035(5) 0.006(5) -0.005(4) 0.000(3)
O005 0.008(3) 0.049(4) 0.040(4) -0.001(3) -0.004(3) 0.004(3)
C007 0.017(5) 0.032(6) 0.024(6) -0.004(5) 0.001(4) -0.003(4)
C00B 0.015(4) 0.023(5) 0.030(5) -0.002(4) -0.001(4) 0.000(3)
N1A 0.010(3) 0.046(5) 0.029(4) -0.008(4) -0.001(3) 0.002(3)
C00C 0.014(4) 0.031(5) 0.031(5) 0.007(4) -0.001(4) 0.006(4)
 
_geom_special_details
;
 All esds (except the esd in the dihedral angle between two l.s. planes)
 are estimated using the full covariance matrix.  The cell esds are taken
 into account individually in the estimation of esds in distances, angles
 and torsion angles; correlations between esds in cell parameters are only
 used when they are defined by crystal symmetry.  An approximate (isotropic)
 treatment of cell esds is used for estimating esds involving l.s. planes.
;
 
loop_
 _geom_bond_atom_site_label_1
 _geom_bond_atom_site_label_2
 _geom_bond_distance
 _geom_bond_site_symmetry_2
 _geom_bond_publ_flag
Rb01 O005 2.889(7) . ?
Rb01 O003 2.890(8) 2_665 ?
Rb01 O002 2.913(5) 3 ?
Rb01 O005 2.945(7) 1_545 ?
Rb01 O002 2.952(5) 3_565 ?
Rb01 O003 2.992(7) 2_655 ?
Rb01 N1 3.272(8) 3 ?
Rb01 O1 3.295(12) 2_655 ?
Rb01 C00C 3.304(9) 3 ?
Rb01 C007 3.626(14) 2_665 ?
Rb01 Li1 3.65(2) 2_675 ?
Rb01 Li1 3.69(2) 2_665 ?
Li1 O002 1.94(2) 4_554 ?
Li1 O004 2.03(2) . ?
Li1 O003 2.09(2) 1_565 ?
Li1 O004 2.18(2) 1_565 ?
Li1 O1 2.58(3) 3_465 ?
Li1 Rb01 3.65(2) 2_674 ?
Li1 Rb01 3.69(2) 2_664 ?
Li1 Rb01 4.48(2) 3_465 ?
Li1 H4 2.30(10) . ?
O1 Li1 2.58(3) 3_565 ?
O1 Rb01 3.295(12) 2_654 ?
O1 H1 0.88(15) . ?
O1 H2 0.72(11) . ?
N1 C00C 1.327(13) . ?
N1 C007 1.406(15) . ?
N1 Rb01 3.272(8) 3_455 ?
O002 C00C 1.261(14) . ?
O002 Li1 1.94(2) 4_545 ?
O002 Rb01 2.913(5) 3_455 ?
O002 Rb01 2.952(5) 3_465 ?
N2 C00B 1.324(13) . ?
N2 C007 1.337(13) . ?
O003 C007 1.246(16) . ?
O003 Li1 2.09(2) 1_545 ?
O003 Rb01 2.890(8) 2_664 ?
O003 Rb01 2.992(7) 2_654 ?
O004 Li1 2.18(2) 1_545 ?
O004 H4 0.67(11) . ?
O005 C00B 1.268(11) . ?
O005 Rb01 2.945(7) 1_565 ?
C007 Rb01 3.626(14) 2_664 ?
C00B N1A 1.364(12) . ?
N1A C00C 1.388(11) . ?
N1A H1A 0.8600 . ?
C00C Rb01 3.304(9) 3_455 ?
 
loop_
 _geom_angle_atom_site_label_1
 _geom_angle_atom_site_label_2
 _geom_angle_atom_site_label_3
 _geom_angle
 _geom_angle_site_symmetry_1
 _geom_angle_site_symmetry_3
 _geom_angle_publ_flag
O005 Rb01 O003 95.1(2) . 2_665 ?
O005 Rb01 O002 147.5(3) . 3 ?
O003 Rb01 O002 106.4(3) 2_665 3 ?
O005 Rb01 O005 80.22(17) . 1_545 ?
O003 Rb01 O005 151.9(2) 2_665 1_545 ?
O002 Rb01 O005 91.0(2) 3 1_545 ?
O005 Rb01 O002 91.3(2) . 3_565 ?
O003 Rb01 O002 59.0(3) 2_665 3_565 ?
O002 Rb01 O002 79.71(13) 3 3_565 ?
O005 Rb01 O002 148.0(3) 1_545 3_565 ?
O005 Rb01 O003 152.2(2) . 2_655 ?
O003 Rb01 O003 79.42(18) 2_665 2_655 ?
O002 Rb01 O003 58.3(3) 3 2_655 ?
O005 Rb01 O003 91.8(2) 1_545 2_655 ?
O002 Rb01 O003 108.4(2) 3_565 2_655 ?
O005 Rb01 N1 104.8(2) . 3 ?
O003 Rb01 N1 125.3(2) 2_665 3 ?
O002 Rb01 N1 42.8(3) 3 3 ?
O005 Rb01 N1 82.4(2) 1_545 3 ?
O002 Rb01 N1 70.0(2) 3_565 3 ?
O003 Rb01 N1 100.5(2) 2_655 3 ?
O005 Rb01 O1 81.6(2) . 2_655 ?
O003 Rb01 O1 76.5(2) 2_665 2_655 ?
O002 Rb01 O1 126.6(2) 3 2_655 ?
O005 Rb01 O1 75.4(2) 1_545 2_655 ?
O002 Rb01 O1 134.1(3) 3_565 2_655 ?
O003 Rb01 O1 70.6(2) 2_655 2_655 ?
N1 Rb01 O1 155.6(2) 3 2_655 ?
O005 Rb01 C00C 126.7(2) . 3 ?
O003 Rb01 C00C 110.0(2) 2_665 3 ?
O002 Rb01 C00C 22.3(3) 3 3 ?
O005 Rb01 C00C 94.4(2) 1_545 3 ?
O002 Rb01 C00C 66.1(2) 3_565 3 ?
O003 Rb01 C00C 80.2(2) 2_655 3 ?
N1 Rb01 C00C 23.3(2) 3 3 ?
O1 Rb01 C00C 148.5(2) 2_655 3 ?
O005 Rb01 C007 100.8(3) . 2_665 ?
O003 Rb01 C007 17.9(3) 2_665 2_665 ?
O002 Rb01 C007 107.1(3) 3 2_665 ?
O005 Rb01 C007 135.7(2) 1_545 2_665 ?
O002 Rb01 C007 76.1(3) 3_565 2_665 ?
O003 Rb01 C007 66.6(3) 2_655 2_665 ?
N1 Rb01 C007 137.4(2) 3 2_665 ?
O1 Rb01 C007 61.2(2) 2_655 2_665 ?
C00C Rb01 C007 117.5(2) 3 2_665 ?
O005 Rb01 Li1 110.1(4) . 2_675 ?
O003 Rb01 Li1 35.0(4) 2_665 2_675 ?
O002 Rb01 Li1 78.0(4) 3 2_675 ?
O005 Rb01 Li1 168.8(4) 1_545 2_675 ?
O002 Rb01 Li1 31.9(4) 3_565 2_675 ?
O003 Rb01 Li1 81.0(3) 2_655 2_675 ?
N1 Rb01 Li1 90.5(4) 3 2_675 ?
O1 Rb01 Li1 109.7(4) 2_655 2_675 ?
C00C Rb01 Li1 76.0(4) 3 2_675 ?
C007 Rb01 Li1 48.6(4) 2_665 2_675 ?
O005 Rb01 Li1 170.9(4) . 2_665 ?
O003 Rb01 Li1 79.9(3) 2_665 2_665 ?
O002 Rb01 Li1 31.4(4) 3 2_665 ?
O005 Rb01 Li1 107.8(3) 1_545 2_665 ?
O002 Rb01 Li1 79.6(4) 3_565 2_665 ?
O003 Rb01 Li1 34.6(4) 2_655 2_665 ?
N1 Rb01 Li1 72.7(4) 3 2_665 ?
O1 Rb01 Li1 104.3(4) 2_655 2_665 ?
C00C Rb01 Li1 49.8(4) 3 2_665 ?
C007 Rb01 Li1 76.7(4) 2_665 2_665 ?
Li1 Rb01 Li1 61.7(3) 2_675 2_665 ?
O002 Li1 O004 115.2(10) 4_554 . ?
O002 Li1 O003 91.0(9) 4_554 1_565 ?
O004 Li1 O003 95.2(9) . 1_565 ?
O002 Li1 O004 117.2(10) 4_554 1_565 ?
O004 Li1 O004 126.7(12) . 1_565 ?
O003 Li1 O004 92.8(9) 1_565 1_565 ?
O002 Li1 O1 93.3(9) 4_554 3_465 ?
O004 Li1 O1 83.7(8) . 3_465 ?
O003 Li1 O1 175.6(10) 1_565 3_465 ?
O004 Li1 O1 84.5(8) 1_565 3_465 ?
O002 Li1 Rb01 53.8(5) 4_554 2_674 ?
O004 Li1 Rb01 140.8(10) . 2_674 ?
O003 Li1 Rb01 52.3(5) 1_565 2_674 ?
O004 Li1 Rb01 81.4(6) 1_565 2_674 ?
O1 Li1 Rb01 130.4(7) 3_465 2_674 ?
O002 Li1 Rb01 51.7(5) 4_554 2_664 ?
O004 Li1 Rb01 82.1(7) . 2_664 ?
O003 Li1 Rb01 54.2(5) 1_565 2_664 ?
O004 Li1 Rb01 140.4(9) 1_565 2_664 ?
O1 Li1 Rb01 129.6(7) 3_465 2_664 ?
Rb01 Li1 Rb01 61.7(3) 2_674 2_664 ?
O002 Li1 Rb01 177.3(9) 4_554 3_465 ?
O004 Li1 Rb01 62.5(6) . 3_465 ?
O003 Li1 Rb01 87.8(6) 1_565 3_465 ?
O004 Li1 Rb01 65.4(6) 1_565 3_465 ?
O1 Li1 Rb01 87.8(6) 3_465 3_465 ?
Rb01 Li1 Rb01 126.9(5) 2_674 3_465 ?
Rb01 Li1 Rb01 125.8(5) 2_664 3_465 ?
O002 Li1 H4 120(3) 4_554 . ?
O004 Li1 H4 16(3) . . ?
O003 Li1 H4 80(3) 1_565 . ?
O004 Li1 H4 122(3) 1_565 . ?
O1 Li1 H4 99(3) 3_465 . ?
Rb01 Li1 H4 129(3) 2_674 . ?
Rb01 Li1 H4 77(3) 2_664 . ?
Rb01 Li1 H4 57(2) 3_465 . ?
Li1 O1 Rb01 151.1(6) 3_565 2_654 ?
Li1 O1 H1 122(10) 3_565 . ?
Rb01 O1 H1 82(9) 2_654 . ?
Li1 O1 H2 105(9) 3_565 . ?
Rb01 O1 H2 82(9) 2_654 . ?
H1 O1 H2 101(10) . . ?
C00C N1 C007 118.4(8) . . ?
C00C N1 Rb01 79.7(5) . 3_455 ?
C007 N1 Rb01 135.9(7) . 3_455 ?
C00C O002 Li1 134.8(9) . 4_545 ?
C00C O002 Rb01 96.6(6) . 3_455 ?
Li1 O002 Rb01 96.9(7) 4_545 3_455 ?
C00C O002 Rb01 130.6(8) . 3_465 ?
Li1 O002 Rb01 94.3(7) 4_545 3_465 ?
Rb01 O002 Rb01 79.71(13) 3_455 3_465 ?
C00B N2 C007 119.3(9) . . ?
C007 O003 Li1 125.1(9) . 1_545 ?
C007 O003 Rb01 116.8(8) . 2_664 ?
Li1 O003 Rb01 92.7(6) 1_545 2_664 ?
C007 O003 Rb01 136.7(7) . 2_654 ?
Li1 O003 Rb01 91.1(6) 1_545 2_654 ?
Rb01 O003 Rb01 79.42(18) 2_664 2_654 ?
Li1 O004 Li1 126.7(12) . 1_545 ?
Li1 O004 H4 106(8) . . ?
Li1 O004 H4 89(8) 1_545 . ?
C00B O005 Rb01 137.8(6) . . ?
C00B O005 Rb01 123.1(6) . 1_565 ?
Rb01 O005 Rb01 80.22(17) . 1_565 ?
O003 C007 N2 121.0(11) . . ?
O003 C007 N1 116.6(10) . . ?
N2 C007 N1 122.4(11) . . ?
O003 C007 Rb01 45.3(6) . 2_664 ?
N2 C007 Rb01 103.7(7) . 2_664 ?
N1 C007 Rb01 115.6(8) . 2_664 ?
O005 C00B N2 123.1(9) . . ?
O005 C00B N1A 117.3(9) . . ?
N2 C00B N1A 119.6(8) . . ?
C00B N1A C00C 122.0(8) . . ?
C00B N1A H1A 119.0 . . ?
C00C N1A H1A 119.0 . . ?
O002 C00C N1 123.4(8) . . ?
O002 C00C N1A 118.3(9) . . ?
N1 C00C N1A 118.3(8) . . ?
O002 C00C Rb01 61.1(4) . 3_455 ?
N1 C00C Rb01 77.0(5) . 3_455 ?
N1A C00C Rb01 136.2(6) . 3_455 ?
 
_refine_diff_density_max    1.445
_refine_diff_density_min   -1.383
_refine_diff_density_rms    0.140

_shelx_res_file
;

    1LRC_2_0ma_b.res created by SHELXL-2014/7


TITL 1LRC_2_0ma_b.res in Pna2(1)
REM Old TITL 1LRC_2_0ma in Pna2(1)
REM SHELXT solution in Pna2(1)
REM R1 0.108,  Rweak 0.005,  Alpha 0.019,  Orientation as input
REM Flack x =  0.079 ( 0.014 ) from Parsons' quotients
REM Formula found by SHELXT:  C6 N O4 Rb
CELL  0.71073  15.6893   3.7585  12.7592   90.000   90.000   90.000
ZERR    4.000   0.0032   0.0008   0.0022    0.000    0.000    0.000
LATT -1
SYMM -X, -Y, 1/2+Z
SYMM 1/2+X, 1/2-Y, Z
SYMM 1/2-X, 1/2+Y, 1/2+Z
SFAC C H CS LI N O RB
UNIT 12 16 0 4 12 20 4
ACTA
TEMP 0
TWIN
L.S. 10
BOND $H
LIST 4
FMAP 2
PLAN 20
WGHT    0.048600    0.994500
BASF   0.07244
FVAR       0.54525
RB01  7    0.655727    0.040820    0.679542    11.00000    0.01810    0.02995 =
         0.03846   -0.00086   -0.00334   -0.00021
H1    2    0.488946    0.172248    0.356064    11.00000    0.05892
LI1   4    0.185473    1.468986    0.330434    11.00000    0.05792    0.02734 =
         0.03069    0.00497    0.00532   -0.00015
O1    6    0.521222    0.033388    0.316936    11.00000    0.07014    0.02850 =
         0.05376    0.00252    0.03618    0.00181
N1    5    0.302902    0.720274    0.514939    11.00000    0.00956    0.03566 =
         0.03067   -0.00215   -0.00023    0.00102
O002  6    0.299194    0.951117    0.680037    11.00000    0.01420    0.04422 =
         0.02672   -0.00760   -0.00139    0.00458
H2    2    0.508226   -0.140626    0.334844    11.00000    0.01791
N2    5    0.436661    0.492980    0.451805    11.00000    0.01485    0.03246 =
         0.02858   -0.00361    0.00022    0.00141
O003  6    0.317582    0.480483    0.353683    11.00000    0.02002    0.04272 =
         0.02887   -0.00584   -0.00498   -0.00257
O004  6    0.167818    0.990938    0.400911    11.00000    0.00550    0.05727 =
         0.03482    0.00590   -0.00498   -0.00033
H4    2    0.203220    0.962252    0.429530    11.00000    0.00342
O005  6    0.551198    0.529314    0.561072    11.00000    0.00812    0.04893 =
         0.03982   -0.00091   -0.00401    0.00434
C007  1    0.353627    0.557606    0.437710    11.00000    0.01746    0.03209 =
         0.02449   -0.00361    0.00143   -0.00265
C00B  1    0.472682    0.577181    0.542294    11.00000    0.01458    0.02338 =
         0.03003   -0.00208   -0.00061   -0.00002
N1A   5    0.424851    0.730859    0.619267    11.00000    0.01009    0.04590 =
         0.02866   -0.00821   -0.00150    0.00225
AFIX  43
H1A   2    0.448492    0.780492    0.678294    11.00000   -1.20000
AFIX   0
C00C  1    0.339164    0.809514    0.605161    11.00000    0.01419    0.03092 =
         0.03052    0.00712   -0.00067    0.00573
HKLF 4

REM  1LRC_2_0ma_b.res in Pna2(1)
REM R1 =  0.0459 for    1416 Fo > 4sig(Fo)  and  0.0619 for all    1726 data
REM    131 parameters refined using      1 restraints

END

WGHT      0.0522      0.3601

REM Highest difference peak  1.445,  deepest hole -1.383,  1-sigma level  0.140
Q1    1   0.6566 -0.1845  0.6818  11.00000  0.05    1.45
Q2    1   0.6588  0.2880  0.6803  11.00000  0.05    1.04
Q3    1   0.6315  0.0452  0.6811  11.00000  0.05    0.43
Q4    1   0.6789  0.0496  0.6815  11.00000  0.05    0.36
Q5    1   0.3031  0.4593  0.5155  11.00000  0.05    0.35
Q6    1   0.3007  0.1956  0.3642  11.00000  0.05    0.34
Q7    1   0.4408  0.3368  0.4194  11.00000  0.05    0.34
Q8    1   0.7160 -0.2275  0.6804  11.00000  0.05    0.33
Q9    1   0.5200 -0.1957  0.3001  11.00000  0.05    0.33
Q10   1   0.5435  0.4239  0.4725  11.00000  0.05    0.32
Q11   1   0.3210  0.2153  0.3287  11.00000  0.05    0.32
Q12   1   0.1019  0.7005  0.4211  11.00000  0.05    0.32
Q13   1   0.3208  0.7145  0.3358  11.00000  0.05    0.31
Q14   1   0.2616  0.3121  0.3231  11.00000  0.05    0.31
Q15   1   0.1851  0.4555  0.5185  11.00000  0.05    0.31
Q16   1   0.5823  0.3007  0.5010  11.00000  0.05    0.31
Q17   1   0.4562  0.5982  0.3797  11.00000  0.05    0.31
Q18   1   0.2361  1.2459  0.3633  11.00000  0.05    0.31
Q19   1   0.3798  0.1915  0.3515  11.00000  0.05    0.31
Q20   1   0.3412  1.1494  0.6836  11.00000  0.05    0.31
;
_shelx_res_checksum   82541

_shelx_hkl_file
;
   0   1   0    0.90    3.80
   0  -1   0    2.50    3.70
   0   1   0    0.50    4.20
   0  -1   0    1.90    3.90
   0   2   0 5258.37  378.36
   0  -2   0 5151.68  378.36
   0   2   0 5234.58  381.46
   0  -2   0 5761.32  382.06
   0  -3   0   -4.30   18.70
   0  -3   0   17.30   12.60
   0   3   0   21.50   13.50
   0  -4   0  439.06   55.29
   0  -4   0  357.16   51.49
   0  -1   1  875.21   59.09
   0  -1  -1  747.93   59.29
   0  -1  -1  744.63   57.69
   0   1   1  845.02   57.79
   0  -1   1  868.31   57.59
   0   1   1  856.11   59.59
   0   1  -1  694.33   57.39
   0  -2  -1    8.10    8.70
   0  -2   1    7.60    7.70
   0  -2  -1    3.20   10.90
   0   2  -1   13.80    8.10
   0   2   1    2.50   13.10
   0   2   1    6.20    8.40
   0  -2   1   -1.60    9.80
   0   2  -1    9.90    9.30
   0  -3  -1  320.17   39.50
   0  -3   1  327.07   39.70
   0  -3  -1  354.16   31.80
   0   3   1  365.46   31.80
   0   3  -1  341.47   30.90
   0  -3   1  332.97   31.00
   0  -4   1  -29.60   22.90
   0  -4  -1   33.00   22.70
   0  -4   1   25.60   20.60
   0  -4  -1   86.19   23.30
   0  -4  -1   16.60   25.40
   0   0   2  982.50   69.69
   0  -1  -2   -2.70    4.80
   0  -1  -2   -5.80    5.00
   0   1   2    1.30    4.90
   0   1   2   -2.40    7.30
   0  -1   2   -3.90    3.30
   0  -1   2   -1.60    4.00
   0   1  -2   -1.40    3.30
   0   2   2  787.22   61.69
   0  -2   2  809.32   55.79
   0  -2   2  735.33   57.29
   0   2   2  795.12   58.19
   0  -3   2   -4.80   16.30
   0   3  -2   28.40   12.70
   0  -3  -2   11.90   13.30
   0  -3   2    3.00   14.50
   0   3   2   19.20   14.00
   0  -3  -2   -1.70   16.30
   0  -3   2   18.40   12.60
   0  -4   2   69.79   20.90
   0  -4   2   35.70   20.50
   0  -4  -2   53.79   27.50
   0  -4  -2   81.39   23.80
   0  -4  -2   30.90   25.00
   0  -4   2   13.10   24.50
   0   0   3   -2.20    3.20
   0   0  -3    2.30    2.60
   0   0   3    4.00    3.00
   0   1   3  756.22   50.79
   0  -1  -3  681.43   53.29
   0   1  -3  610.84   50.19
   0  -1  -3  655.13   51.09
   0  -1   3  759.72   51.79
   0  -1   3  743.03   51.69
   0  -1   3  662.83   50.59
   0   1   3  740.73   51.29
   0   1   3  737.43   53.39
   0  -2   3   -0.70    4.30
   0   2  -3    5.00    7.10
   0   2   3    3.90    9.20
   0  -2  -3   -4.90   11.00
   0  -2  -3    7.40    9.60
   0  -2   3    4.00    7.00
   0  -2   3    9.40   10.20
   0   2   3   -7.90    9.60
   0   3   3  578.34   48.70
   0  -3  -3  671.53   49.20
   0  -3  -3  587.34   55.99
   0  -3   3  577.64   54.49
   0   3  -3  622.74   46.90
   0   3   3  571.94   55.29
   0  -3   3  610.34   47.80
   0  -3   3  562.04   52.99
   0  -4   3    3.30   23.30
   0  -4   3   29.90   19.50
   0  -4  -3   -1.30   18.40
   0  -4  -3   36.80   23.30
   0  -4   3  -14.30   21.90
   0   0  -4 4476.65  291.67
   0   0   4 3778.02  291.37
   0   1   4   -0.50    4.50
   0  -1   4    2.80    3.60
   0   1  -4    0.80    2.70
   0  -1   4   -1.20    3.70
   0   1   4    1.40    6.10
   0  -1  -4   -3.50    6.60
   0  -1  -4   -2.10    5.40
   0  -2   4 1409.66  109.39
   0   2   4 1489.05  114.49
   0   2   4 1532.25  110.59
   0  -2  -4 1659.03  115.39
   0   2   4 1604.84  110.69
   0  -2  -4 1567.54  110.69
   0  -2   4 1456.95  112.19
   0   2  -4 1430.26  109.19
   0  -2   4 1638.24  112.99
   0  -3   4   16.30   13.90
   0  -3   4    0.30   12.40
   0   3   4   37.90   16.00
   0  -3  -4   27.30   15.60
   0   3   4   -9.10   17.30
   0  -3  -4   -6.30   13.20
   0  -3   4    1.60   17.10
   0   3  -4   13.40   11.20
   0  -4  -4  135.19   28.00
   0  -4  -4   70.09   32.70
   0  -4   4   79.59   31.10
   0  -4   4  110.59   22.90
   0   0  -5    1.40    4.70
   0   0   5   -2.20    5.40
   0   0   5    3.90    3.80
   0  -1   5  229.98   19.60
   0   1   5  213.58   18.70
   0  -1  -5  200.18   21.30
   0   1   5  225.48   18.60
   0  -1  -5  186.98   17.90
   0   1   5  237.48   21.30
   0  -2   5    6.70    9.20
   0   2   5    2.80    6.80
   0  -2   5   -4.60    6.90
   0   2   5    4.60   10.00
   0   2   5    4.40   10.90
   0  -2  -5    8.30   10.50
   0  -2   5   11.00   10.40
   0  -2   5    3.20    7.10
   0  -2  -5   -2.00   12.80
   0   2  -5    1.60    6.50
   0   3   5  363.66   34.10
   0  -3  -5  340.37   33.90
   0   3   5  371.16   56.69
   0  -3  -5  386.26   42.90
   0  -3   5  286.37   40.00
   0  -3   5  393.66   42.20
   0  -3   5  322.87   36.00
   0  -4   5   27.30   19.20
   0  -4  -5   66.59   31.10
   0  -4  -5   14.50   25.30
   0  -4   5   26.20   31.90
   0   0   6 3143.19  243.58
   0   0   6 3515.05  243.38
   0   0  -6 3643.14  243.68
   0   1   6    0.10    7.20
   0  -1  -6    0.80    6.60
   0  -1   6   -6.40    7.40
   0   1   6   -6.80    6.80
   0  -1  -6   -0.40    8.60
   0   2   6 1376.66   97.09
   0   2   6 1320.27  102.79
   0  -2  -6 1219.08   97.79
   0  -2   6 1313.37   98.99
   0  -2   6 1270.27   96.29
   0   2   6 1435.16   98.39
   0  -2  -6 1200.58  102.09
   0  -2   6 1432.06   97.49
   0  -2   6 1518.25   99.39
   0  -3   6  -12.80    9.00
   0  -3   6    4.00   12.80
   0  -3  -6   21.20   17.10
   0  -3  -6   14.20   15.50
   0  -3   6  -29.70   16.90
   0  -4   6   69.89   31.70
   0  -4  -6   85.49   30.80
   0  -4   6  110.19   22.20
   0  -4  -6  128.99   29.50
   0   0   7  -11.90    7.90
   0   0  -7    2.30    3.60
   0   0   7   -4.90    4.60
   0   0  -7   11.20    7.30
   0  -1  -7   81.69   11.30
   0   1   7   96.19   15.60
   0   1   7   75.59   11.70
   0  -1   7   64.59   11.60
   0  -1  -7   89.09   14.50
   0  -2   7  -12.10    9.60
   0  -2  -7  -10.30   23.30
   0  -2   7    1.80    7.60
   0   2   7   -1.10    8.80
   0  -2  -7    9.90   11.70
   0   2   7    9.00   14.90
   0  -2   7  -17.90    9.80
   0  -2   7    5.10    9.50
   0  -3  -7  132.39   25.50
   0  -3  -7   65.59   18.10
   0  -3   7   65.89   22.30
   0  -3   7   81.09   27.20
   0  -3   7   57.09   13.40
   0  -4  -7   30.20   28.00
   0  -4   7  -37.10   29.30
   0  -4   7    5.80   19.80
   0  -4  -7  -38.70   29.20
   0  -4  -7   22.50   32.20
   0   0  -8 2834.82  185.38
   0   0   8 2517.15  185.58
   0   0  -8 2437.66  183.38
   0   1   8  -11.50    9.40
   0  -1  -8   -1.60    7.90
   0  -1   8  -20.80    9.70
   0  -1  -8    0.40   12.10
   0   1   8    1.60    8.60
   0   2   8 1877.31  146.49
   0   2   8 2055.69  141.09
   0  -2  -8 1784.62  145.79
   0  -2   8 2244.88  141.89
   0  -2   8 1826.02  138.99
   0  -2  -8 1938.11  141.19
   0  -3   8  -12.60   13.90
   0  -3   8  -15.00   26.60
   0  -3   8  -12.90   12.80
   0  -3  -8  -38.80   19.00
   0  -3   8  -22.10   19.40
   0  -3  -8   14.70   24.70
   0  -4   8   60.09   20.90
   0  -4  -8   13.10   30.20
   0  -4  -8   50.79   36.50
   0  -4  -8   97.29   32.10
   0  -4   8   63.19   49.30
   0   0  -9    0.20    4.40
   0   0   9   -2.50   10.50
   0   0  -9    3.90    5.40
   0  -1  -9  231.78   26.30
   0  -1   9  219.28   25.60
   0   1   9  220.78   25.80
   0   1   9  216.58   25.30
   0  -1  -9  201.78   19.80
   0   2   9   -8.80   11.30
   0   2   9    9.70   16.40
   0  -2  -9   16.10   13.20
   0  -2   9  -14.30   12.30
   0  -2   9   -2.90    5.40
   0  -2  -9   -5.90   15.00
   0  -3   9   83.69   17.00
   0  -3   9   70.89   18.20
   0  -3  -9   44.10   25.00
   0  -3   9  114.19   23.30
   0  -4   9  -17.50   32.10
   0  -4   9   -9.50   20.20
   0  -4  -9   42.60   31.10
   0  -4  -9 -107.29   48.50
   0   0 -10  409.76   29.70
   0   0 -10  395.36   30.10
   0   0  10  399.76   37.30
   0  -1 -10    3.90   12.70
   0   1  10    1.40   12.40
   0  -1  10  -13.70   13.00
   0  -1 -10    9.20    9.10
   0  -2  10  552.64   49.30
   0   2  10  530.05   47.20
   0  -2 -10  513.35   53.19
   0  -2 -10  655.43   46.60
   0  -3 -10   24.70   33.90
   0  -3 -10  -34.20   26.50
   0  -3  10  -13.40   17.50
   0   0 -11    1.20    5.00
   0   0 -11   -3.80    6.10
   0   0  11    5.20   15.80
   0   1  11   70.19   16.80
   0  -1 -11  100.99   14.50
   0  -1 -11   88.99   18.80
   0  -1  11   70.89   17.90
   0  -2 -11    9.20   15.40
   0  -2 -11   31.50   29.70
   0  -2  11   -4.20   16.90
   0   2  11  -16.50   15.50
   0  -3  11  174.08   25.70
   0  -3 -11  184.28   31.70
   0   0  12  816.62   65.19
   0   0 -12  797.62   58.49
   0  -1  12   -8.10   16.20
   0   1  12    4.10   15.40
   0  -1 -12  -17.00   15.30
   0  -1 -12    0.40    9.90
   0  -2  12  136.89   23.50
   0   2  12  184.48   28.70
   0  -2 -12  132.89   27.40
   0  -3 -12  -26.20   21.30
   0  -3 -12   -3.50   23.50
   0  -3  12  -39.30   20.60
   0   0  13   12.40   17.20
   0  -1 -13  -13.20   18.50
   0  -1 -13    9.90   13.40
   0  -1 -13   13.10   10.70
   0  -1  13   -5.60   17.90
   0   1  13   18.10   17.40
   0  -2  13  -20.80   19.80
   0  -2 -13    7.60   16.00
   0   2  13   -1.20   18.80
   0  -2 -13   39.90   26.50
   0  -3 -13  109.19   27.70
   0  -3  13   46.00   24.40
   0   0  14  445.46   46.20
   0  -1  14   18.40   20.30
   0   1  14   -2.70   18.60
   0  -1 -14    8.50   11.80
   0  -1 -14   23.60   15.30
   0  -2 -14  159.08   24.60
   0   2  14  134.99   24.80
   0  -2  14  134.69   27.20
   0  -2 -14  125.39   27.80
   0   0  15   -0.80   31.30
   0  -1 -15  -15.90   12.80
   0  -1 -15   -2.00   13.90
   0  -2 -15  -29.40   30.50
   0  -2  15  -18.80   24.40
   0   2  15    1.20   23.30
   0   0  16  197.28   29.80
   0  -1  16   18.70   24.00
   0  -1 -16   -6.10   13.40
   0   1  16    2.30   22.80
   1  -1   0   47.80    7.00
   1   1   0   55.79    7.10
  -1   1   0   62.79    9.00
  -1  -1   0   61.89    7.00
  -1   1   0   52.49    7.00
   1  -1   0   67.29    9.30
  -1  -1   0   48.90    8.50
  -1   2   0  562.04   44.30
   1  -2   0  602.34   48.60
  -1  -2   0  611.44   48.80
  -1  -2   0  583.04   44.50
   1   2   0  604.74   44.60
   1  -2   0  587.24   44.70
  -1   2   0  587.44   47.90
  -1  -3   0   59.89   15.00
  -1  -3   0   30.80   19.50
  -1  -3   0   27.40   17.00
   1  -3   0   64.69   22.80
   1  -3   0   51.09   14.70
   1   3   0   64.29   15.40
  -1   3   0   35.90   25.70
   1  -4   0  339.37   38.00
  -1  -4   0  416.36   38.80
   1  -4   0  273.17   47.60
  -1  -4   0  338.57   48.60
  -1  -4   0  261.67   48.40
   1   4   0  408.06   37.40
   1  -1   1  966.70   75.89
  -1   1   1  922.61   76.39
   1   1  -1 1130.19   74.79
  -1  -1  -1 1222.38   77.29
  -1   1   1  935.01   74.89
  -1  -1  -1 1144.39   74.99
   1  -1   1  974.80   74.79
  -1   1  -1 1107.19   74.69
  -1   1  -1 1154.88   74.09
  -1  -1   1  987.80   75.09
   1   1   1  943.01   74.89
  -1  -1   1 1000.60   76.29
  -1  -1   1 1035.90   76.39
   1  -1  -1 1147.09   76.89
  -1  -2  -1  317.47   28.30
  -1  -2  -1  285.27   23.10
   1  -2   1  226.58   22.40
  -1   2   1  239.58   22.90
   1  -2   1  221.28   26.70
   1   2  -1  289.37   22.70
  -1   2  -1  276.37   25.60
  -1  -2   1  224.38   22.40
   1  -2  -1  311.57   28.60
   1   2   1  236.68   22.90
  -1   2  -1  300.17   22.40
   1  -2  -1  287.27   23.40
  -1  -2   1  245.28   26.70
   1  -3   1  211.38   32.70
   1   3  -1  216.38   24.00
  -1   3   1  208.78   31.60
   1  -3   1  227.38   24.10
  -1  -3  -1  179.88   33.50
  -1  -3  -1  252.87   25.20
   1  -3  -1  228.88   33.20
  -1  -3   1  236.08   24.40
  -1  -3   1  190.38   31.10
   1   3   1  211.08   24.70
  -1  -3   1  195.08   33.30
  -1   3  -1  212.28   30.00
   1  -3  -1  251.37   25.40
  -1  -4  -1  155.48   35.40
  -1  -4  -1  221.08   30.60
   1  -4   1  100.09   33.80
  -1  -4  -1  111.09   26.10
   1  -4   1  130.99   33.20
   1  -4   1  136.59   25.30
   1  -4  -1  211.48   30.40
  -1  -4   1  118.29   24.70
  -1  -4   1  131.99   32.40
   1   4   1  204.88   28.50
  -1  -4   1  118.59   29.80
   1  -4  -1  165.58   38.70
   1   0   2   -0.60    2.20
   1   0   2    1.50    1.30
   1   0   2    0.50    0.40
  -1   0   2   -0.10    2.40
  -1   0  -2   -0.90    1.50
   1   0  -2    2.40    2.60
  -1   0  -2    1.00    2.10
   1   0  -2   -0.10    1.70
   1  -1   2 4678.63  311.47
  -1   1   2 3696.33  314.47
  -1  -1  -2 4386.46  312.57
   1  -1  -2 4155.28  312.27
   1   1   2 5018.30  313.37
  -1  -1   2 4602.34  311.87
  -1  -1   2 4529.05  311.87
  -1   1  -2 4101.79  311.27
   1  -2   2  607.34   47.60
   1   2  -2  532.05   43.60
  -1   2   2  618.34   44.70
   1  -2   2  552.34   43.60
  -1  -2  -2  555.04   44.40
  -1  -2  -2  571.14   48.80
  -1   2   2  636.24   48.60
  -1  -2   2  628.44   48.00
   1  -2  -2  594.94   49.00
   1   2   2  591.04   44.60
   1  -2  -2  586.84   44.70
  -1  -2   2  596.64   47.60
  -1   2  -2  544.15   43.60
  -1  -2   2  545.95   43.70
  -1   2  -2  652.13   54.49
  -1  -3  -2  339.07   32.80
   1  -3   2  382.96   31.40
   1  -3   2  321.17   38.90
  -1  -3  -2  336.47   40.80
   1   3  -2  319.57   30.70
  -1   3   2  313.37   39.40
   1  -3  -2  361.56   32.90
   1   3   2  382.56   32.90
  -1  -3   2  392.86   38.50
   1  -3  -2  321.67   39.70
  -1  -3   2  405.66   32.00
  -1  -3   2  290.67   39.80
   1  -4   2  202.38   37.90
   1   4  -2  256.67   30.10
   1  -4   2  277.87   32.70
  -1  -4  -2  281.37   35.10
   1  -4   2  162.68   37.70
   1  -4  -2  232.58   33.90
   1   4   2  305.17   33.20
  -1  -4   2  291.57   31.60
  -1  -4   2  175.28   39.30
   1  -4  -2  303.67   49.50
  -1  -4   2  267.47   42.10
   1   0  -3   -0.70    3.60
  -1   0  -3   -1.00    2.10
  -1   0  -3    1.50    2.00
  -1   0   3    3.70    3.20
  -1   0  -3    3.70    3.30
   1   0   3    1.50    3.10
   1   0   3    0.00    1.70
  -1  -1  -3 1834.62  132.69
   1  -1   3 1931.81  131.09
   1  -1   3 1665.03  130.09
   1   1  -3 1756.72  129.99
  -1  -1  -3 1866.01  130.29
   1  -1   3 1888.11  130.29
  -1  -1  -3 1785.92  130.59
  -1   1   3 1902.21  132.89
   1   1   3 1821.52  130.29
  -1   1  -3 1836.32  130.99
   1   1   3 1903.61  132.89
   1   1   3 1845.02  130.59
   1  -1  -3 1848.81  132.69
   1  -1  -3 1851.91  130.79
  -1  -1   3 1821.32  131.49
  -1   2   3   50.29   12.30
  -1   2   3   68.59   13.10
   1  -2   3   62.59   10.10
  -1  -2  -3   80.59   16.60
   1   2  -3   87.69   11.00
   1  -2   3   53.19   13.20
  -1  -2  -3   90.39   12.70
  -1   2  -3   86.09   13.70
  -1  -2   3   64.79   14.60
   1   2   3   48.40   13.90
  -1  -2   3   58.69   10.00
   1  -2  -3   75.29   14.50
   1   2   3   83.09   12.80
   1  -2  -3   90.29   13.00
  -1  -2   3   64.19   12.60
  -1   3   3  387.46   44.00
  -1  -3  -3  471.55   37.30
  -1  -3  -3  411.76   45.20
   1   3  -3  423.36   34.80
   1  -3   3  339.07   41.60
   1  -3   3  387.46   34.20
   1  -3  -3  459.55   37.30
   1  -3  -3  414.96   43.70
  -1  -3   3  400.66   40.70
  -1  -3   3  321.97   42.60
  -1  -3   3  453.05   37.00
   1   3   3  417.36   36.90
  -1  -4  -3  136.89   34.40
   1  -4   3   84.19   22.00
  -1  -4  -3  105.09   26.20
  -1  -4  -3  110.09   31.10
   1  -4   3   64.79   25.90
   1  -4   3   43.30   28.30
  -1  -4   3   41.90   22.50
  -1  -4   3   29.20   26.30
   1  -4  -3   77.59   31.00
   1  -4  -3  123.79   26.30
  -1  -4   3   76.59   21.60
   1   4   3  129.99   24.50
   1   0   4    1.40    2.20
   1   0  -4    1.20    4.70
   1   0   4    7.00    7.80
  -1   0  -4   -2.40    2.80
  -1   0  -4   -2.90    3.10
  -1   0  -4   -0.70    4.80
  -1   0   4    6.80    3.80
   1  -1   4  437.66   41.40
  -1   1   4  538.75   41.70
   1  -1   4  454.05   37.80
   1  -1   4  558.94   38.90
  -1  -1  -4  547.55   39.00
  -1  -1  -4  573.04   41.60
   1   1  -4  533.85   37.90
   1   1   4  589.74   39.90
  -1  -1   4  500.55   39.60
  -1  -1   4  446.36   38.00
   1  -1  -4  575.24   41.90
   1   1   4  530.05   41.40
   1  -1  -4  584.44   39.20
   1   1   4  510.25   38.90
   1  -2   4  322.67   31.60
  -1   2   4  284.27   26.80
   1  -2   4  301.97   26.00
   1   2  -4  341.67   26.30
  -1  -2  -4  385.26   28.50
  -1  -2  -4  381.96   34.50
  -1   2   4  314.07   32.40
  -1  -2   4  305.67   30.90
  -1  -2   4  300.57   29.90
   1  -2  -4  388.66   34.10
   1  -2  -4  390.26   28.90
   1   2   4  317.87   28.50
   1   2   4  334.97   32.90
  -1  -2   4  314.77   26.70
  -1  -3  -4   21.30   17.60
  -1  -3  -4   83.09   17.70
   1   3  -4   76.99   13.60
   1  -3   4   59.79   20.10
   1  -3   4   81.09   16.40
   1  -3   4   77.99   18.20
  -1   3   4   54.99   19.30
   1  -3  -4   85.89   18.50
   1   3   4  105.39   18.60
  -1  -3   4   42.40   19.20
  -1  -3   4   60.39   17.00
  -1  -3   4   42.70    8.10
   1  -3  -4   39.50   18.60
  -1  -4  -4  199.58   31.60
   1  -4   4  209.28   36.30
   1  -4   4  163.98   26.20
  -1  -4  -4  153.28   33.50
  -1  -4  -4  171.78   43.80
  -1  -4   4  202.28   29.40
   1  -4  -4  195.08   51.19
   1  -4  -4  214.58   31.80
  -1  -4   4  118.79   32.60
   1   0   5   -1.50    5.50
   1   0  -5   -2.00    5.60
  -1   0  -5   -0.80    3.60
  -1   0  -5    0.60    3.80
  -1   0   5    0.30    4.30
   1   0   5   -3.40    2.80
  -1   1   5 1694.83  113.49
   1  -1   5 1501.75  109.39
  -1  -1  -5 1384.36  110.39
  -1  -1  -5 1452.45  112.79
   1   1  -5 1377.16  109.49
  -1   1   5 1681.63  110.99
   1  -1   5 1679.53  110.99
  -1  -1   5 1549.34  111.29
   1  -1  -5 1524.05  113.19
   1  -1  -5 1478.25  110.69
   1   1   5 1601.94  110.79
   1   1   5 1618.84  113.39
   1   1   5 1600.34  110.69
   1  -2   5  112.29   12.20
  -1  -2  -5   56.69   15.70
   1   2  -5   77.69   11.60
  -1   2   5   99.39   13.40
  -1  -2  -5   92.39   14.30
   1  -2   5  107.19   17.80
   1  -2   5  105.29   13.60
   1  -2   5  114.89   16.70
  -1   2   5   81.29   14.30
   1  -2  -5   94.09   15.00
  -1  -2   5  109.79   13.20
  -1  -2   5  107.39   18.30
   1   2   5  122.59   16.90
   1  -2  -5   79.19   17.50
  -1  -2   5   89.39   14.70
  -1  -2   5  111.09   17.00
   1   2   5  135.79   21.30
   1   3  -5  187.68   20.90
   1  -3   5  194.08   27.20
   1  -3   5  232.38   33.10
   1  -3   5  235.38   30.90
  -1  -3  -5  154.98   31.10
  -1   3   5  188.98   38.10
  -1  -3  -5  208.98   26.50
   1   3   5  225.58   26.30
  -1  -3   5  177.28   28.40
   1  -3  -5  175.68   31.70
  -1  -3   5  183.28   19.90
   1  -3  -5  209.58   26.90
  -1  -3   5  205.08   34.80
  -1  -4  -5   77.29   27.50
  -1  -4  -5    1.60   28.80
   1  -4   5   73.39   20.30
  -1  -4  -5   32.00   27.00
   1  -4   5  104.49   32.40
  -1  -4   5   61.59   21.00
   1  -4  -5  100.29   28.10
   1  -4  -5   47.20   28.00
   1   0  -6   -0.50    6.50
  -1   0  -6   -1.40    3.30
  -1   0  -6    3.00    5.00
  -1   0   6    7.90    5.50
   1   0   6   -6.30    6.70
  -1   1   6 1497.65  111.59
  -1   1   6 1417.76  109.19
  -1  -1  -6 1631.24  111.79
   1   1  -6 1493.95  107.39
   1  -1   6 1470.15  109.29
  -1  -1  -6 1608.94  108.79
   1  -1  -6 1651.13  111.99
   1   1   6 1413.66  108.99
   1  -1  -6 1642.14  108.99
   1   1   6 1450.45  111.39
   1   1   6 1443.46  108.69
  -1   2   6  284.67   24.40
   1  -2   6  300.17   27.40
  -1  -2  -6  283.77   25.50
   1   2  -6  252.57   21.80
   1  -2   6  247.78   25.10
   1  -2   6  284.17   25.00
  -1   2   6  276.97   30.90
  -1  -2  -6  229.48   31.50
   1  -2   6  277.07   22.20
  -1  -2   6  256.57   27.30
  -1  -2   6  266.87   23.30
   1   2   6  311.97   26.30
  -1  -2   6  287.37   27.70
   1  -2  -6  243.28   31.50
   1  -2  -6  282.57   25.80
  -1  -2   6  288.07   25.70
   1  -3   6  284.57   35.10
  -1  -3  -6  233.58   37.40
   1  -3   6  213.28   29.20
  -1  -3  -6  301.57   30.20
   1   3  -6  266.17   23.60
   1  -3   6  267.57   35.00
  -1   3   6  275.07   37.90
   1  -3  -6  269.57   38.50
  -1  -3   6  232.98   24.50
  -1  -3   6  189.18   31.90
   1  -3  -6  272.47   34.30
  -1  -3   6  170.78   30.50
   1   3   6  256.57   29.50
  -1  -3   6  246.38   35.40
  -1  -4  -6  318.97   41.90
  -1  -4  -6  394.26   57.09
   1  -4   6  397.16   53.69
   1  -4   6  364.46   35.60
   1  -4  -6  315.67   42.20
  -1  -4   6  318.37   49.99
  -1  -4   6  370.26   36.90
   1  -4  -6  230.48   44.90
   1   0   7   -0.70    7.90
  -1   0   7    0.80    6.50
  -1   0   7   -5.90    8.20
   1   0  -7    1.20    7.30
   1   0  -7    2.90    4.90
  -1   0  -7    4.20    3.60
   1   1  -7  314.67   19.50
   1  -1   7  215.28   25.40
  -1  -1  -7  327.87   22.90
  -1   1   7  240.78   26.60
   1  -1  -7  319.97   27.90
  -1  -1   7  218.28   25.10
   1   1   7  210.98   24.10
   1  -1  -7  308.97   22.90
   1   1   7  233.78   22.90
  -1   2   7  122.49   21.50
   1   2  -7   87.39   11.40
   1  -2   7  139.59   18.70
  -1  -2  -7  134.99   18.00
  -1  -2  -7   80.59   24.10
  -1   2   7  108.79   17.50
   1  -2   7   90.39   14.50
   1  -2   7  128.59   12.80
  -1  -2   7  112.29   14.10
   1  -2  -7   84.29   34.10
   1   2   7  147.39   19.00
  -1  -2   7   94.89   14.80
   1   2   7  134.69   18.30
  -1  -2   7  124.59   17.30
  -1  -2   7  128.99   19.50
   1  -2  -7  104.19   16.40
  -1  -3  -7   52.79   20.10
   1  -3   7   64.59   21.60
  -1   3   7   20.00   20.20
  -1  -3  -7   24.40   18.70
  -1  -3   7   12.30   19.20
  -1  -3   7   17.90   11.80
   1  -3  -7   33.30   23.00
   1   3   7   67.69   20.50
  -1  -3   7   32.50   15.90
   1  -4   7  101.59   21.80
  -1  -4  -7   74.39   35.30
  -1  -4  -7   92.19   30.80
   1  -4   7   27.20   33.10
  -1  -4  -7   81.39   35.40
  -1  -4   7   64.89   22.30
   1  -4  -7    5.60   34.00
   1  -4  -7   84.59   30.60
  -1  -4   7   49.90   33.70
  -1   0  -8    0.60    4.10
  -1   0   8  -17.10    9.50
   1   0   8    0.00    9.40
  -1   0   8   13.00    6.70
   1   0  -8   -0.60    6.90
   1   0  -8   -4.10    5.30
   1   0  -8    1.50    8.00
  -1   0   8   11.70    6.60
  -1  -1  -8  183.48   29.80
  -1  -1  -8  209.68   19.50
  -1   1   8  241.48   24.50
   1  -1   8  224.08   23.30
  -1   1   8  200.88   22.80
   1   1   8  213.38   22.50
  -1  -1   8  199.88   23.60
   1  -1  -8  253.57   30.80
   1  -1  -8  208.68   19.80
   1  -2   8  146.49   22.00
  -1   2   8  131.99   19.90
  -1  -2  -8  144.59   18.60
   1  -2   8  136.49   12.80
  -1   2   8   85.69   18.00
  -1  -2  -8  106.99   22.10
   1  -2  -8  149.99   18.90
  -1  -2   8  149.49   22.50
   1  -2  -8  121.69   22.10
   1   2   8  154.48   20.90
  -1  -2   8  104.29   15.20
  -1  -3  -8   63.29   24.70
   1  -3   8   79.89   22.90
  -1  -3  -8   95.39   29.90
   1  -3   8   70.99   16.40
  -1   3   8   53.09   23.80
   1  -3   8   93.79   23.50
  -1  -3   8   38.60   16.60
  -1  -3   8   64.79   16.40
  -1  -3   8    7.30   20.20
  -1  -3   8   44.30   14.70
   1  -3  -8   24.90   24.20
   1  -4   8  131.89   22.90
  -1  -4  -8   73.49   37.80
   1  -4   8   91.09   41.90
  -1  -4  -8  119.19   35.40
  -1  -4  -8  161.68   33.60
   1  -4  -8  153.68   33.90
  -1  -4   8  119.49   43.80
   1  -4  -8   80.19   34.30
  -1  -4   8   99.39   23.70
   1   0   9  -10.60   10.50
  -1   0   9   -2.40    6.70
  -1   0   9   -5.50   11.00
  -1   0  -9    3.50    7.90
   1   0  -9   -2.10    4.70
  -1   0  -9    5.90    4.50
   1   0  -9   -4.80    5.90
  -1   1   9  913.91   69.79
   1  -1   9  935.81   70.39
  -1  -1  -9  931.31   67.59
  -1   1   9  859.81   71.59
  -1  -1  -9  967.20   71.89
   1   1   9  900.21   69.49
   1  -1  -9  980.00   72.49
   1  -1  -9  909.51   67.59
  -1  -1   9  913.11   70.29
   1  -2   9   64.59   15.10
  -1  -2  -9   80.49   21.30
  -1   2   9   50.89   18.60
  -1   2   9   69.29   14.20
   1  -2  -9   96.69   16.30
   1   2   9   62.09   14.30
  -1  -2   9   55.39    9.30
   1  -2  -9   55.49   19.10
  -1  -2   9   58.99   15.30
   1  -3   9  235.38   28.30
   1  -3   9  278.37   29.20
  -1  -3  -9  180.58   35.90
  -1   3   9  174.68   35.70
   1  -3   9  274.97   27.50
  -1  -3  -9  246.18   40.90
  -1  -3  -9  238.68   49.30
  -1  -3   9  186.28   31.60
   1  -3  -9  160.48   34.50
  -1  -3   9  183.28   29.30
  -1  -3   9  272.07   30.80
   1  -3  -9  355.56   49.50
  -1  -3   9  194.18   34.10
   1  -4   9  138.39   35.80
  -1  -4  -9  102.39   32.60
   1  -4   9   40.40   20.80
  -1  -4  -9  -17.90   44.70
  -1  -4   9   93.19   34.00
   1  -4  -9  106.69   34.20
   1   0 -10   -6.10    8.90
   1   0 -10  -10.50    6.40
  -1   0  10  -14.30   12.20
   1   0 -10    1.30    5.10
  -1   0 -10    2.20    4.70
  -1   0  10   14.60    8.60
   1   0  10   -2.60   11.90
  -1   1  10  379.46   33.80
   1  -1  10  376.36   34.30
  -1  -1 -10  329.77   28.60
  -1  -1 -10  310.97   34.20
  -1   1  10  376.36   35.10
   1  -1 -10  318.47   35.50
   1   1  10  409.46   34.60
  -1  -1  10  387.36   35.60
   1  -1 -10  305.37   28.60
  -1   2  10  168.38   25.20
   1  -2  10  169.88   26.60
  -1  -2 -10  111.29   24.30
  -1  -2 -10  188.58   22.50
  -1   2  10  106.49   24.20
   1   2  10  166.78   25.70
  -1  -2  10  195.58   28.20
   1  -2 -10  187.48   22.10
   1  -2 -10  132.39   26.40
   1  -3  10   48.90   20.30
  -1  -3 -10    5.60   25.30
  -1  -3 -10   -6.70   24.70
  -1  -3 -10   53.69   41.00
   1  -3  10   53.79   12.10
  -1  -3  10   10.80   21.90
   1  -3 -10   14.80   24.50
   1  -3 -10   74.09   26.10
  -1   0  11  -10.40   14.60
   1   0 -11  -10.90    6.80
  -1   0 -11    1.10    5.30
  -1   0 -11    2.20    4.50
   1   0 -11   -0.30    5.40
   1   0  11   -0.10   15.40
  -1  -1 -11   89.89   19.10
  -1  -1 -11  124.69   18.70
   1  -1  11  194.98   27.30
  -1   1  11  161.68   24.50
  -1   1  11  151.38   24.70
  -1  -1 -11  112.29   15.50
   1  -1 -11  106.99   15.60
  -1  -1  11  182.58   26.90
   1  -1 -11   68.09   18.90
   1  -2  11   -1.80   16.90
  -1  -2 -11   -7.00   33.70
  -1  -2 -11   10.80   17.00
  -1  -2 -11   18.80   15.00
  -1   2  11    8.60   18.00
  -1   2  11  -17.20   15.70
   1   2  11  -23.10   15.50
   1  -2 -11   17.70   15.30
   1  -2 -11  -20.20   33.10
  -1  -2  11  -11.00   16.60
  -1  -3 -11   16.10   25.90
  -1  -3 -11   77.09   33.20
   1  -3  11   78.19   21.70
  -1  -3  11   49.50   20.20
   1  -3 -11   42.50   24.20
  -1   0 -12   -0.80    1.10
  -1   0  12    5.30   15.80
   1   0 -12    3.90    5.30
   1   0  12   -4.70   15.30
   1   0 -12  -17.00    6.80
  -1  -1 -12  223.98   25.70
  -1  -1 -12  177.08   27.90
  -1  -1 -12  210.98   19.60
   1  -1  12  146.59   23.40
  -1   1  12  147.99   22.90
   1   1  12  135.89   22.50
  -1  -1  12  140.49   23.40
   1  -1 -12  217.28   30.50
   1  -1 -12  201.38   19.30
  -1  -2 -12   54.09   21.30
  -1  -2 -12   47.30   22.20
  -1   2  12   61.39   17.90
   1  -2  12   42.30   19.10
  -1  -2 -12   64.69   17.40
   1  -2 -12   92.19   18.90
  -1  -2  12   51.89   19.60
   1  -2 -12   35.50   21.20
   1   2  12   43.10   17.90
   1  -3  12    2.80   21.90
  -1  -3 -12   59.79   26.80
  -1  -3 -12  -37.70   20.00
   1  -3 -12   56.29   25.10
  -1  -3  12   -0.10   21.60
   1   0 -13   -5.70    5.60
  -1   0  13   -1.90   16.90
   1   0  13   11.60   17.00
  -1  -1 -13  291.97   29.40
  -1  -1 -13  200.98   32.90
  -1  -1 -13  242.08   22.80
  -1   1  13  210.68   34.10
   1  -1  13  202.28   33.90
  -1  -1  13  232.28   36.20
   1  -1 -13  199.38   33.70
   1  -1 -13  248.88   23.10
   1   1  13  231.18   32.20
  -1  -2 -13  -10.80   18.20
   1  -2  13    8.20   20.30
  -1  -2 -13   11.50   16.70
  -1   2  13   22.20   19.10
   1  -2 -13   -1.20   15.80
   1   2  13   10.20   19.20
  -1  -2  13  -16.80   19.50
  -1  -3 -13  128.79   29.40
  -1  -3  13   68.69   25.90
   1  -3 -13   92.09   27.10
   1   0  14   20.60   19.30
  -1   0  14   -5.80   18.60
   1  -1  14   94.39   23.00
  -1  -1 -14  102.79   19.70
  -1   1  14   76.59   22.00
   1   1  14   83.69   21.50
   1  -1 -14  111.39   16.40
  -1  -1  14   73.29   22.50
  -1  -2 -14   46.60   22.30
  -1  -2 -14   72.29   19.00
  -1   2  14   53.39   22.00
   1  -2  14   68.09   24.30
   1   2  14   54.39   22.80
  -1  -2  14   35.20   23.70
   1  -2 -14   64.59   19.30
  -1   0  15  -16.60   39.00
  -1  -1 -15   12.00   14.70
  -1  -1 -15   25.90   19.90
   1  -1 -15   32.40   15.80
   1  -1 -15   48.20   16.10
  -1   2  15    9.50   23.60
  -1  -2 -15  -40.20   26.10
   1  -2  15  -19.50   23.90
  -1  -2  15    6.50   24.30
  -1   0  16   11.40   21.80
   1   0  16    0.70   21.60
  -1  -1 -16    7.90   15.90
  -1   1  16   35.00   24.20
  -1  -1 -16    8.20   13.90
   1  -1  16   35.00   24.80
  -1  -1  16   55.49   27.80
   1  -1 -16   12.90   14.80
   1  -1 -16   30.80   16.40
   1   1  16   29.20   23.40
  -2   0   0  612.24   43.30
   2   0   0  633.04   43.40
  -2   0   0  565.24   44.10
   2  -1   0 1646.24  115.49
   2   1   0 1620.84  113.69
  -2  -1   0 1487.55  116.49
  -2   1   0 1636.34  115.49
  -2  -2   0  101.39   18.30
  -2   2   0  114.59   17.70
   2  -2   0  110.49   19.00
   2  -2   0   88.39   13.90
  -2  -2   0   97.89   17.70
  -2  -2   0  109.89   14.10
   2   2   0   84.99   13.70
  -2   3   0  355.76   47.20
  -2  -3   0  313.97   37.60
   2  -3   0  358.36   31.20
  -2  -3   0  294.87   43.60
   2  -3   0  281.77   39.60
   2   3   0  313.77   30.70
  -2  -3   0  358.36   31.00
   2   4   0   57.99   20.20
  -2  -4   0   31.50   21.10
   2  -4   0   18.00   28.60
  -2  -4   0  -20.00   22.80
   2  -4   0   36.30   21.00
  -2  -4   0   -7.30   29.90
  -2   0   1 1634.04  114.29
   2   0  -1 1668.53  114.29
   2   0  -1 1627.94  115.29
  -2   0  -1 1524.15  114.09
   2  -1   1   61.79   10.10
  -2   1   1   82.79   11.00
   2   1  -1   73.09   10.80
  -2  -1  -1   75.19    9.30
   2   1  -1   66.59    8.10
  -2  -1  -1   60.19   10.00
  -2  -1   1   58.99    9.40
   2   1   1   71.19    8.40
  -2  -1   1   87.39    9.50
   2  -1  -1   62.19   11.00
   2  -2   1 1721.63  132.29
  -2  -2  -1 1878.61  132.69
  -2  -2  -1 1878.71  137.69
  -2  -2  -1 1988.50  136.99
  -2  -2  -1 1914.81  130.99
   2   2  -1 1835.12  132.39
   2  -2   1 1892.41  135.69
   2  -2  -1 1869.71  132.79
   2  -2  -1 1977.70  136.49
  -2   2  -1 1817.02  135.39
  -2  -2   1 1936.51  136.29
  -2  -2   1 1670.13  132.19
   2   2   1 1757.82  132.59
  -2  -2   1 1780.92  135.69
  -2  -3  -1  105.69   21.90
  -2  -3  -1  116.59   40.20
  -2  -3  -1  141.69   20.50
   2   3  -1  131.69   17.80
   2  -3   1  115.79   17.80
   2  -3   1   72.29   22.10
  -2   3  -1  105.19   22.10
  -2  -3   1   85.09   16.90
   2  -3  -1   75.69   23.40
   2  -3  -1  144.79   20.20
  -2  -3   1   44.80   20.40
   2   3   1  108.69   18.20
  -2  -3   1   82.49   19.20
   2  -4   1   16.00   31.30
   2   4  -1  106.19   21.30
  -2  -4  -1   80.89   23.30
   2  -4   1   83.19   21.50
  -2  -4  -1   95.49   32.50
   2   4   1   84.79   22.50
  -2  -4   1   31.20   36.50
  -2  -4   1   81.69   22.30
   2  -4  -1   76.29   22.80
   2  -4  -1   15.00   27.90
  -2  -4   1  102.89   30.30
   2   0   2  774.62   53.69
  -2   0  -2  651.13   53.49
  -2   0   2  827.02   52.99
   2   0  -2  758.22   54.19
  -2   0  -2  723.63   53.09
   2   0  -2  713.03   52.89
   2   0   2  736.13   52.69
   2   1  -2  813.72   57.09
  -2  -1  -2  794.52   58.19
   2   1  -2  768.02   55.09
  -2   1   2  717.23   59.19
  -2  -1  -2  779.52   57.79
  -2  -1  -2  867.41   55.69
  -2  -1  -2  810.62   55.09
   2  -1   2  731.33   56.39
   2   1   2  685.83   55.39
  -2   1  -2  779.72   54.79
  -2  -1   2  712.13   56.79
  -2  -1   2  694.43   54.99
  -2   1  -2  779.32   56.49
   2  -1  -2  784.22   57.79
   2  -2   2  555.14   43.10
  -2  -2  -2  490.75   37.40
  -2  -2  -2  509.05   44.40
  -2   2   2  561.44   44.20
   2   2  -2  468.95   39.10
   2  -2   2  532.45   39.00
  -2  -2  -2  474.95   43.70
  -2  -2  -2  446.96   39.50
  -2   2   2  539.85   36.90
   2   2   2  551.94   39.90
   2  -2  -2  462.35   39.70
  -2  -2   2  600.84   44.00
   2  -2  -2  501.25   44.10
  -2   2  -2  417.36   43.80
  -2  -2   2  544.05   42.90
  -2  -2   2  528.65   39.20
   2  -3   2  371.46   40.70
  -2  -3  -2  370.06   41.50
  -2   3   2  383.96   40.60
   2  -3   2  415.46   33.10
  -2  -3  -2  353.06   33.20
   2   3  -2  327.67   32.00
  -2  -3  -2  303.17   40.80
  -2  -3   2  387.66   38.80
   2  -3  -2  372.46   33.60
  -2  -3   2  396.06   37.00
  -2  -3   2  344.37   40.80
   2  -3  -2  297.57   41.50
  -2  -3   2  326.47   25.70
   2   3   2  387.36   33.30
   2   4  -2   33.70   18.60
  -2   4   2   -2.30   22.50
   2  -4   2   -5.40   27.50
  -2  -4  -2    6.50   27.60
  -2  -4  -2   -0.80   22.20
   2  -4   2   26.50   19.00
  -2  -4  -2  -15.30   28.00
  -2  -4   2  -39.70   25.30
  -2  -4   2   17.60   20.30
  -2  -4   2    6.10   24.20
   2  -4  -2   27.80   28.90
   2  -4  -2   43.00   22.80
   2   4   2   25.90   21.10
   2   0  -3 2594.34  209.48
  -2   0   3 3228.68  210.88
   2   0   3 3161.98  210.18
  -2   0  -3 2885.81  210.08
  -2   1   3   97.59   13.80
   2   1  -3   99.89   11.60
  -2  -1  -3   95.99   13.50
  -2  -1  -3   90.79   12.70
  -2  -1  -3   98.19   10.70
  -2  -1  -3  102.69   10.50
   2   1  -3  113.19    9.60
   2  -1   3   88.49   11.50
   2  -1   3   84.09   12.20
  -2  -1   3   98.69    9.80
   2   1   3   75.49   10.70
  -2  -1   3  101.69   12.20
  -2   1  -3   93.89   10.00
   2  -1  -3  112.59   14.50
  -2   1  -3  100.29   11.00
  -2  -2  -3 1210.68   82.79
  -2  -2  -3 1296.47   87.69
   2  -2   3 1012.70   81.59
  -2   2   3 1041.10   80.69
  -2   2   3 1056.89   86.29
  -2  -2  -3 1291.47   81.19
   2   2  -3 1188.28   81.99
   2  -2   3 1052.09   84.79
  -2   2  -3 1219.58   84.89
   2   2   3 1016.20   82.39
  -2  -2   3 1105.19   85.49
  -2  -2   3 1016.00   84.69
  -2  -2   3  987.80   81.69
   2  -2  -3 1263.57   83.09
   2  -2  -3 1229.18   87.19
  -2  -3  -3  -11.50   17.40
   2  -3   3   12.40   13.70
   2  -3   3    2.10   17.30
   2   3  -3   24.90   12.80
  -2  -3  -3   42.50   15.60
  -2  -3  -3   33.70   20.40
  -2   3   3  -12.30   13.30
   2  -3  -3   26.60   15.80
  -2  -3   3    0.40    5.40
  -2   3  -3   25.20   13.70
  -2  -3   3    2.20   16.50
   2   3   3   13.60   15.50
  -2  -3   3  -12.40   13.70
   2  -3  -3   26.80   20.40
   2   4  -3  112.59   21.20
  -2   4   3  139.79   34.20
  -2  -4  -3  104.29   26.30
  -2  -4  -3   73.69   29.10
   2  -4   3   94.79   22.60
  -2  -4  -3   93.89   31.80
   2  -4   3   95.49   32.30
   2  -4   3  102.59   28.30
  -2  -4   3   40.00   27.90
  -2  -4   3   96.09   22.70
   2  -4  -3  128.39   27.10
  -2  -4   3   65.09   24.60
   2  -4  -3   48.60   29.60
   2   4   3  128.99   24.40
   2   0  -4 2797.62  187.18
   2   0   4 2547.15  185.18
   2   0  -4 2430.76  185.58
  -2   0  -4 2526.35  186.18
  -2   0   4 2828.52  187.08
   2  -1   4  126.09   14.80
   2   1  -4  195.58   16.00
  -2   1   4  162.58   18.70
   2  -1   4  171.68   15.10
  -2  -1  -4  198.08   18.20
  -2  -1  -4  202.78   15.70
   2  -1   4  163.58   15.10
  -2  -1  -4  180.18   15.10
   2  -1  -4  194.28   19.10
  -2   1  -4  170.98   20.30
  -2  -1   4  129.49   14.00
  -2  -1   4  139.89   16.40
   2  -1  -4  151.48   21.00
   2   1   4  145.49   15.10
  -2  -2  -4 1000.10   71.29
   2   2  -4  962.40   70.09
  -2  -2  -4 1038.40   76.09
   2  -2   4  939.81   75.89
  -2   2   4  957.80   75.69
   2  -2   4  881.01   69.79
  -2  -2   4 1007.30   74.19
  -2  -2   4  904.01   70.29
   2  -2  -4 1055.89   76.29
   2   2   4  949.80   71.39
   2  -2  -4  967.20   71.49
  -2  -2   4  892.81   73.59
  -2   2  -4 1010.90   72.89
  -2   3   4  468.95   49.10
  -2  -3  -4  509.25   50.89
  -2  -3  -4  476.05   42.40
   2   3  -4  445.56   39.30
  -2  -3  -4  413.56   49.50
   2  -3   4  503.65   48.30
  -2  -3   4  498.65   48.70
   2  -3  -4  504.05   44.70
  -2  -3   4  499.75   46.20
   2  -3  -4  506.05   51.49
   2   3   4  558.34   43.00
  -2  -4  -4   56.29   30.10
  -2   4   4    4.90   26.50
  -2  -4  -4   51.19   24.30
   2   4  -4   16.30   16.70
  -2  -4  -4  -37.20   24.40
   2  -4   4   26.00   19.90
   2  -4   4    4.80   28.10
  -2  -4   4  -11.60   25.40
   2  -4  -4  -60.99   38.30
  -2  -4   4   34.20   20.80
   2  -4  -4   44.50   25.10
   2   4   4   49.40   23.00
  -2   0  -5 1384.76  101.09
   2   0   5 1488.35  100.19
   2   0   5 1379.16  101.39
   2   0  -5 1394.06  100.99
  -2   0   5 1620.44  102.39
  -2   0  -5 1353.66  101.29
   2   0  -5 1402.66  102.39
  -2   0  -5 1295.37  101.29
   2   1  -5   38.50    6.90
  -2   1   5   20.90    9.10
   2  -1   5   15.50    6.60
  -2  -1  -5   26.70    6.90
  -2  -1  -5   32.50    9.80
  -2  -1  -5   45.00    8.00
   2   1   5   22.30    7.00
   2  -1  -5   33.40   10.20
  -2  -1   5   18.40    6.10
   2  -1  -5   36.30   16.00
  -2  -1   5   14.20    8.10
   2   1   5   28.60    7.80
  -2   2   5  427.26   32.40
   2   2  -5  383.46   31.70
   2  -2   5  387.56   31.40
   2  -2   5  449.76   36.30
  -2  -2  -5  430.86   34.20
  -2  -2  -5  433.86   39.80
  -2   2   5  422.16   39.40
   2   2   5  396.96   34.10
  -2  -2   5  389.46   36.40
  -2  -2   5  413.66   37.20
   2  -2  -5  416.76   34.20
   2  -2  -5  423.06   40.00
  -2  -2   5  408.06   32.60
  -2  -3  -5   37.80   17.00
   2  -3   5   61.39   20.70
  -2   3   5   20.00   25.40
  -2  -3  -5   22.50   18.80
   2  -3   5   65.79   23.80
   2   3  -5   33.30   12.10
   2  -3  -5   45.70   23.10
  -2  -3   5   49.60   17.80
  -2  -3   5   37.70    9.80
  -2  -3   5   45.10   29.90
  -2  -3   5   34.80   17.00
   2   3   5   62.99   18.50
   2  -3  -5   23.50   21.60
   2  -4   5   64.79   20.40
  -2   4   5   43.40   32.00
   2  -4   5   16.50   31.20
   2   4  -5   74.09   18.60
  -2  -4  -5   71.79   26.30
  -2  -4  -5    2.20   28.40
  -2  -4   5   21.20   36.10
  -2  -4   5   52.79   21.20
   2   4   5   98.59   25.50
   2  -4  -5  103.39   28.20
   2  -4  -5   57.89   31.10
  -2   0  -6 1103.09   84.29
   2   0  -6 1268.77   85.89
  -2   0  -6 1192.18   84.09
  -2   0   6 1294.77   85.49
   2   0   6 1133.59   84.69
   2   0  -6 1028.40   83.49
   2   0   6 1198.38   83.09
  -2   0  -6 1148.69   84.69
  -2  -1  -6  104.39   16.40
  -2  -1  -6  120.89   16.10
   2   1  -6  128.89   12.50
   2  -1   6   73.09   11.40
   2   1  -6  123.29    9.70
  -2  -1  -6  114.19   12.20
  -2   1   6   71.79   14.10
   2  -1  -6  116.49   18.20
   2  -1  -6  130.39   20.60
  -2  -1   6   69.79   13.10
   2   1   6   86.69   11.60
   2   1   6   87.89   12.00
   2  -2   6  234.68   23.30
  -2   2   6  218.28   28.00
  -2  -2  -6  188.08   27.90
   2  -2   6  196.28   17.10
  -2  -2  -6  206.28   21.60
  -2   2   6  196.18   20.20
   2   2  -6  174.18   17.30
   2  -2   6  202.68   20.50
   2  -2  -6  198.38   21.70
  -2  -2   6  190.98   23.60
   2   2   6  198.98   22.00
   2  -2  -6  174.28   27.60
  -2  -2   6  191.98   18.90
  -2  -2   6  175.38   23.90
   2  -3   6  284.27   32.20
  -2   3   6  266.57   39.30
  -2  -3  -6  336.97   32.60
   2  -3   6  318.67   37.70
  -2  -3  -6  302.87   39.90
  -2  -3  -6  204.38   39.50
   2   3  -6  312.47   26.20
   2  -3  -6  267.47   39.80
   2   3   6  328.77   32.10
  -2  -3   6  249.28   34.70
   2  -3  -6  206.48   45.50
  -2  -3   6  236.38   37.10
  -2  -3   6  270.97   28.70
  -2  -3   6  304.07   27.60
  -2   4   6   84.39   32.20
   2  -4   6   93.49   21.10
   2  -4   6   94.79   34.20
  -2  -4  -6   34.20   29.60
   2  -4  -6  101.79   29.80
   2   4   6   95.49   26.80
  -2  -4   6   57.49   30.30
  -2  -4   6   81.39   23.00
   2  -4  -6   75.69   34.50
  -2   0  -7 2219.58  183.58
   2   0   7 2756.92  185.58
  -2   0  -7 2513.45  184.88
   2   0  -7 2759.02  186.48
  -2   0   7 2853.71  185.98
  -2   0  -7 2679.93  184.78
   2   0  -7 2273.37  184.08
   2   0   7 2755.12  183.68
  -2   1   7    9.30   10.70
  -2  -1  -7    8.00    9.40
   2   1  -7    6.60    4.20
  -2  -1  -7   12.20    8.00
  -2  -1  -7   -4.80    9.20
   2  -1   7    3.50    8.70
  -2  -1   7    7.10    5.30
   2   1   7    8.30    8.50
   2   1   7    7.20    8.50
   2  -1  -7    5.10   10.70
  -2  -2  -7  633.44   55.79
   2  -2   7  681.33   49.10
  -2   2   7  648.94   48.80
   2  -2   7  623.54   48.30
  -2  -2  -7  622.24   48.90
   2  -2   7  705.53   49.90
   2  -2   7  603.64   46.00
  -2   2   7  575.64   54.89
   2   2  -7  573.94   46.10
   2  -2  -7  613.44   49.40
  -2  -2   7  595.34   47.50
  -2  -2   7  692.63   51.09
   2   2   7  656.03   49.70
   2  -2  -7  537.05   64.49
  -2  -2   7  649.04   51.79
  -2   3   7   72.79   13.40
  -2  -3  -7   84.29   24.70
   2   3  -7   99.59   14.90
  -2  -3  -7  131.69   27.40
  -2  -3  -7   80.39   27.30
  -2   3   7   58.69   19.80
   2  -3   7   86.09   23.30
  -2  -3   7   95.49   17.10
  -2  -3   7   77.89   14.70
   2  -3  -7   58.99   25.80
  -2  -3   7   66.19   30.30
   2   3   7  112.19   22.20
  -2  -3   7   80.89   22.60
  -2  -4  -7   91.89   30.80
  -2  -4  -7   86.99   39.10
   2  -4   7  117.59   22.30
  -2  -4  -7   55.09   34.90
   2  -4   7  107.19   35.10
   2  -4  -7  131.69   37.10
  -2  -4   7   80.69   33.20
   2  -4  -7  138.79   33.00
  -2  -4   7   97.89   24.10
   2   0  -8  125.89   16.50
  -2   0  -8   97.39    9.70
   2   0  -8   92.39   11.20
   2   1  -8   20.40    4.20
  -2  -1  -8   23.00    8.90
  -2  -1  -8   14.70   10.60
   2  -1   8    0.10   10.30
  -2   1   8   22.10   10.50
  -2   1   8   -2.00   10.50
   2  -1  -8   12.80   10.20
   2   1   8   24.20    9.80
   2   1   8   15.60   10.00
   2  -1  -8   17.10   25.30
  -2  -2  -8   21.10   16.70
  -2  -2  -8   42.90   13.60
   2  -2   8   18.40   12.10
  -2  -2  -8   33.30   15.30
   2  -2   8   14.40    6.40
  -2   2   8    1.70   10.80
  -2   2   8    3.00   12.30
   2   2  -8   20.30    6.30
   2  -2  -8   15.10   15.90
  -2  -2   8    0.40   12.00
  -2  -2   8    3.20    9.90
   2  -2  -8   33.00   13.60
   2   2   8   19.60   14.30
  -2  -3  -8  380.66   49.60
  -2   3   8  319.27   48.90
  -2   3   8  434.06   36.80
   2  -3   8  365.86   48.50
  -2  -3  -8  390.36   49.80
   2  -3   8  413.96   39.10
   2  -3   8  510.15   41.40
  -2  -3   8  400.96   44.80
  -2  -3   8  404.66   36.70
   2   3   8  470.65   40.60
  -2  -3   8  447.36   38.80
   2  -3  -8  439.16   43.80
   2  -3  -8  308.87   48.40
  -2  -3   8  404.46   42.50
   2  -4   8   -7.90   18.20
  -2  -4  -8  -36.00   33.00
  -2  -4  -8   29.80   29.60
   2  -4   8   13.10   34.90
  -2  -4  -8   -0.60   28.50
  -2  -4   8  -20.70   21.20
   2  -4  -8   30.60   31.40
   2  -4  -8   63.49   31.70
  -2   0   9  676.83   50.59
   2   0  -9  658.43   47.80
  -2   0  -9  629.14   46.70
   2   0   9  628.04   50.99
  -2  -1  -9   24.20    9.50
  -2   1   9   25.60   12.90
  -2  -1  -9   10.80   11.00
  -2   1   9   20.50   11.90
  -2  -1  -9   22.00   12.00
   2  -1   9   16.20   11.80
   2  -1  -9    2.20   13.30
   2  -1  -9   21.30   10.10
   2   1   9   33.90   10.30
   2   1   9   14.00   11.30
  -2  -1   9    4.50   12.30
  -2  -2  -9  106.59   17.00
  -2   2   9   61.09   16.70
  -2   2   9   81.89   14.50
   2  -2   9  103.19   16.30
  -2  -2   9   79.59   11.70
   2  -2  -9   73.09   16.20
  -2  -2   9   47.10   15.50
   2  -2  -9   62.29   21.80
  -2  -3  -9  -23.10   21.50
  -2   3   9   18.50   13.90
  -2  -3  -9   63.79   42.20
  -2  -3  -9   20.70   22.40
  -2   3   9   50.09   39.40
   2  -3   9   30.70   14.00
  -2  -3   9  -32.90   27.20
   2  -3  -9   36.30   22.50
  -2  -3   9   10.70   15.90
   2  -3  -9   58.29   26.60
   2   3   9   67.69   23.10
  -2  -3   9    1.70   16.00
  -2  -3   9    3.00   17.70
   2  -4   9    0.70   19.00
  -2  -4  -9   52.19   43.20
  -2  -4  -9   75.29   31.20
   2  -4   9   93.49   32.50
  -2  -4   9   20.50   31.80
   2  -4  -9   25.70   33.00
  -2  -4   9   22.50   23.10
  -2   0  10  304.17   26.40
   2   0  10  313.87   29.20
  -2   0  10  299.47   26.30
   2   0 -10  330.17   27.30
  -2   0 -10  245.88   20.70
  -2   0  10  258.57   29.80
   2   0 -10  246.68   22.40
   2   0 -10  221.58   22.90
   2  -1  10   32.30   14.20
  -2  -1 -10   21.40   13.10
  -2  -1 -10   18.60   11.90
  -2   1  10   26.90   13.80
  -2  -1 -10   35.70   10.40
  -2   1  10   24.80   14.20
   2  -1 -10   27.20   10.50
   2  -1 -10   23.70   16.50
   2   1  10   37.50   13.10
  -2  -1  10    2.20   13.90
  -2  -2 -10   66.89   19.10
  -2  -2 -10  111.89   18.10
  -2   2  10   86.49   21.50
   2  -2  10   99.39   18.40
  -2   2  10   80.49   16.80
  -2  -2 -10   69.09   22.90
   2  -2 -10  128.69   18.60
  -2  -2  10   78.49   18.00
   2  -2 -10   89.39   21.30
  -2  -3 -10  121.99   35.50
  -2   3  10   77.99   18.60
   2  -3  10   96.59   13.40
  -2   3  10   93.59   27.50
  -2  -3 -10  178.98   46.00
  -2  -3 -10   68.59   25.10
  -2  -3  10   95.69   17.80
   2  -3 -10  178.28   27.70
  -2  -3  10  104.69   30.60
   2  -3 -10   88.59   32.30
  -2   0  11  967.20   77.69
   2   0 -11 1092.89   74.79
   2   0 -11 1045.90   75.49
  -2   0 -11 1005.70   74.19
  -2   0  11 1064.79   80.69
   2   0  11 1083.79   80.49
  -2  -1 -11   15.30   14.00
  -2  -1 -11   14.90    9.90
  -2  -1 -11   15.10   12.30
  -2   1  11   -1.50   14.30
   2  -1  11   13.20   14.70
  -2   1  11    5.10   14.40
  -2  -1  11   11.20   15.30
   2  -1 -11    5.80   16.60
   2  -1 -11   22.30   10.50
   2   1  11    8.50   13.90
  -2   2  11  393.36   48.50
  -2   2  11  430.36   43.40
   2  -2  11  532.15   44.90
  -2  -2 -11  475.85   40.00
  -2  -2 -11  446.66   46.90
  -2  -2 -11  334.27   63.59
   2  -2 -11  483.75   40.10
  -2  -2  11  507.45   45.00
  -2   3  11  -12.00   16.60
  -2  -3 -11   18.50   34.30
  -2  -3 -11  -30.80   22.00
   2  -3 -11   -4.20   23.00
  -2  -3  11    4.20   19.30
   2   0  12  394.76   39.60
   2   0 -12  430.06   30.60
   2   0 -12  386.16   31.60
  -2   0  12  399.36   41.70
   2  -1  12   65.99   18.50
  -2  -1 -12   79.39   15.80
  -2   1  12   96.19   21.10
  -2  -1 -12   55.59   18.80
  -2   1  12   51.89   17.80
  -2  -1 -12   97.79   13.60
  -2  -1  12   58.29   18.90
   2  -1 -12   43.90   20.30
   2   1  12   64.09   17.80
   2  -1 -12   86.09   13.50
  -2  -2 -12  118.99   19.90
  -2   2  12   99.59   33.40
   2  -2  12   84.79   21.00
  -2  -2 -12   42.40   22.40
  -2   2  12   70.49   19.30
  -2  -2 -12   90.39   22.50
   2  -2 -12   79.69   24.80
   2  -2 -12  112.19   19.80
  -2  -2  12   79.89   21.20
  -2  -3 -12   33.60   21.90
  -2   3  12   45.50   20.90
  -2  -3 -12  114.89   28.80
  -2  -3  12   67.59   22.80
   2  -3 -12   74.39   26.60
  -2   0  13   40.10   18.30
   2   0  13   62.39   18.10
   2   0 -13   30.70    8.70
   2   0 -13   31.60    6.80
  -2  -1 -13  -21.60   16.00
  -2   1  13   16.20   17.90
  -2   1  13   10.00   17.30
  -2  -1 -13   12.60   12.80
  -2  -1 -13    2.70   11.00
   2  -1  13   16.50   18.00
   2   1  13   23.80   17.30
  -2  -1  13   23.30   18.20
   2  -1 -13   -5.00   17.50
   2  -1 -13   14.50   11.50
  -2  -2 -13   64.99   22.30
   2  -2  13   93.39   23.70
  -2  -2 -13   93.09   19.70
  -2   2  13  103.19   21.10
  -2  -2  13   82.59   23.00
   2  -2 -13   87.69   20.10
  -2  -3 -13   22.00   26.60
   2  -3 -13   14.70   25.40
   2   0  14   31.50   19.40
   2   0 -14   22.50    6.60
  -2   0  14   26.80   20.10
  -2   1  14   21.30   20.10
  -2  -1 -14   14.80   23.80
   2  -1  14   23.60   20.10
   2  -1 -14   27.50   15.30
  -2  -1  14   18.50   20.60
   2   1  14   22.90   19.70
   2  -1 -14   28.70   12.30
  -2  -2 -14   13.10   17.40
  -2   2  14    9.50   20.60
   2  -2  14   19.30   23.70
  -2  -2 -14  -17.60   18.70
   2  -2 -14   19.20   18.10
  -2  -2  14    9.20   22.60
  -2  -1 -15  -10.90   13.90
  -2  -1 -15    8.20   12.70
   2  -1  15  -16.80   38.20
   2  -1 -15   26.50   15.70
   2   1  15   -9.00   36.70
   2  -1 -15    8.60   14.10
  -2  -1  15  -16.80   23.40
   2  -2  15   83.49   28.30
  -2  -2 -15   57.89   34.80
  -2   2  15   82.89   25.50
  -2  -2  15  104.39   27.50
  -2   0  16   -3.70   21.90
   2   0  16   -4.60   21.40
  -2   1  16   -4.80   23.60
   2  -1  16   12.30   25.90
   2  -1 -16   28.00   15.80
   2   1  16   25.80   27.20
   2  -1 -16    2.30   16.70
  -2  -1  16    6.30   26.50
   3   0   0   -1.50    3.30
  -3   0   0   -1.40    3.50
   3   0   0   -2.20    3.40
  -3   0   0   -0.70    3.10
  -3  -1   0 2196.38  151.78
  -3  -1   0 2134.09  149.49
  -3   1   0 2032.40  151.28
   3  -1   0 2118.29  151.38
   3   1   0 2110.09  151.78
   3   1   0 2039.40  149.49
  -3  -2   0   11.30    9.30
  -3  -2   0    8.80    9.50
   3  -2   0   -6.70    9.30
  -3  -2   0    4.20    8.60
   3   2   0    0.70    9.20
  -3   2   0    7.60    9.90
   3  -2   0   -6.80   11.30
  -3  -3   0  315.27   29.80
  -3   3   0  286.47   38.80
   3  -3   0  217.18   36.20
  -3  -3   0  213.58   18.80
   3   3   0  276.97   26.80
  -3  -3   0  297.27   48.90
   3  -3   0  273.97   38.40
  -3  -3   0  259.57   33.10
  -3  -4   0   59.49   22.40
  -3   4   0    0.20   21.50
  -3  -4   0   39.00   26.80
  -3  -4   0   30.80   25.70
   3  -4   0   89.89   29.50
   3   4   0   32.90   20.50
   3  -4   0   36.40   21.40
   3   0   1   -0.40    3.60
   3   0  -1   -0.10    3.70
  -3   0   1   -0.30    3.60
   3   0   1   -2.40    3.40
   3   0  -1    1.30    3.30
  -3   0  -1    0.90    3.60
  -3   0   1    4.60    3.70
   3   1  -1  286.17   24.50
  -3   1   1  273.97   25.10
  -3  -1  -1  333.17   25.20
   3  -1   1  282.47   24.60
   3   1  -1  333.87   23.40
  -3  -1  -1  306.17   23.40
   3   1   1  243.88   22.30
  -3  -1   1  274.07   22.30
  -3  -1   1  262.87   24.60
   3   1   1  254.57   24.50
   3  -1  -1  321.27   25.50
   3  -2   1  219.98   25.40
   3   2  -1  211.78   20.30
  -3  -2  -1  209.58   24.70
  -3  -2  -1  198.98   20.40
   3  -2   1  206.78   20.70
  -3  -2  -1  262.17   34.90
   3  -2  -1  221.28   26.10
   3   2   1  228.98   20.90
  -3  -2   1  210.48   23.70
  -3  -2   1  218.18   25.10
  -3   2  -1  230.58   24.50
  -3   2  -1  211.68   16.40
  -3  -2   1  204.98   20.30
   3  -2  -1  218.28   21.20
   3  -3   1   28.60   17.80
  -3  -3  -1   54.89   17.00
  -3   3   1   31.40   16.20
  -3  -3  -1   37.90   27.80
  -3  -3  -1   12.90   18.70
   3   3  -1   41.70   14.60
  -3   3  -1   50.69   15.40
   3  -3  -1   43.10   22.00
  -3  -3   1   33.90   15.90
   3  -3  -1   43.90   17.80
  -3  -3   1    8.60   18.00
   3   3   1   20.70   14.80
  -3  -4  -1  265.97   46.30
   3  -4   1  254.47   44.50
   3   4  -1  268.17   32.00
   3  -4   1  281.17   33.60
  -3  -4  -1  303.77   35.60
  -3   4   1  263.27   40.70
   3  -4  -1  285.07   35.80
  -3  -4   1  282.17   34.30
  -3  -4   1  304.17   45.00
  -3   4  -1  270.17   44.10
  -3  -4   1  190.68   43.10
   3  -4  -1  268.97   47.40
   3   4   1  293.67   33.30
   3   0   2   -0.40    3.80
  -3   0   2    0.90    3.90
  -3   0  -2   -3.20    3.90
  -3   0  -2   -1.80    3.60
   3   0  -2   -2.00    3.80
  -3   0   2    3.00    7.50
   3   0   2   -2.20    3.40
   3   0  -2   -0.80    3.80
  -3   1   2 9605.34  675.83
   3  -1   2 9278.47  674.33
  -3  -1  -2 9653.03  675.53
   3   1  -2 9999.00  675.23
  -3  -1   2 8940.01  674.93
  -3   1  -2 9609.34  674.43
   3  -1  -2 9744.53  675.43
  -3  -2  -2   13.80   10.00
  -3  -2  -2   22.10   11.10
   3   2  -2    5.90    8.70
  -3  -2  -2    6.00   10.20
   3  -2   2    3.90    8.60
  -3   2   2    8.30   11.50
  -3  -2  -2    1.70    5.50
   3  -2   2   -0.30   10.50
  -3  -2   2    3.70   11.00
  -3  -2   2    8.90    8.30
   3  -2  -2    3.60   10.90
   3  -2  -2   10.30   13.30
  -3   2  -2   23.40   11.10
  -3  -2   2    3.30    8.80
   3   2   2   -3.50   10.20
  -3  -3  -2  742.63   54.39
   3  -3   2  626.64   60.19
  -3  -3  -2  746.63   62.19
   3   3  -2  695.83   52.69
  -3   3   2  619.44   60.19
  -3  -3  -2  715.23   62.19
   3  -3  -2  716.23   62.29
   3   3   2  657.93   53.69
  -3  -3   2  609.84   60.49
  -3  -3   2  616.04   58.39
  -3  -4  -2   70.29   23.80
   3  -4   2   -1.10   29.70
   3   4  -2   42.30   19.40
   3  -4   2   24.50   19.10
  -3   4   2   22.90   28.10
  -3  -4  -2   55.19   31.40
  -3  -4  -2   39.90   23.70
  -3  -4   2   35.70   22.30
  -3  -4   2   -2.50   22.50
  -3  -4   2   54.79   21.40
   3  -4  -2   34.00   26.40
   3  -4  -2   41.70   23.30
   3   4   2   72.39   22.10
  -3   0   3   -1.90    4.80
  -3   0  -3   -1.90    3.60
   3   0   3   -0.80    3.50
  -3   0  -3   -1.70    4.00
   3   0  -3   -0.50    4.20
   3   0  -3    3.80    4.90
  -3   0  -3    1.90    4.70
   3   0   3   -1.70    3.60
   3  -1   3  544.95   38.50
   3   1  -3  487.55   36.60
  -3   1   3  525.75   40.30
  -3  -1  -3  448.36   39.30
  -3  -1  -3  584.14   40.50
  -3  -1  -3  460.45   38.00
   3   1  -3  487.85   38.90
   3  -1  -3  487.55   40.20
  -3   1  -3  471.35   36.80
  -3   1  -3  479.35   38.00
  -3  -1   3  486.55   36.80
  -3  -1   3  517.85   39.30
   3   1   3  505.35   37.20
  -3  -2  -3  297.27   32.90
  -3   2   3  393.66   35.10
   3   2  -3  275.37   27.10
  -3  -2  -3  290.87   28.50
  -3  -2  -3  285.77   32.60
   3  -2   3  359.66   32.50
  -3  -2  -3  380.26   31.40
   3  -2   3  379.66   27.60
   3   2   3  379.06   29.20
  -3   2  -3  286.87   30.30
   3  -2  -3  287.47   33.70
  -3  -2   3  381.56   28.10
   3  -2  -3  305.47   29.20
  -3  -2   3  383.26   32.90
  -3  -2   3  390.56   32.20
  -3   3   3   39.50   18.00
  -3  -3  -3   60.69   17.10
  -3  -3  -3   19.00   17.10
   3  -3   3   43.30   20.60
   3   3  -3   27.30   13.70
  -3  -3  -3    5.50   19.80
   3  -3  -3   77.29   33.60
   3   3   3   66.19   17.60
  -3  -3   3    9.00   17.70
  -3   3  -3   33.50   14.50
  -3  -3   3   60.99   17.40
   3  -3  -3   46.70   19.50
  -3  -3   3   29.10   16.20
   3   4  -3  310.37   32.60
  -3  -4  -3  220.28   39.80
  -3  -4  -3  182.58   40.10
  -3  -4  -3  283.87   36.60
   3  -4   3  174.18   42.30
  -3   4   3  297.57   45.80
   3  -4   3  285.57   32.90
   3   4   3  325.27   35.00
  -3  -4   3  290.57   43.70
   3  -4  -3  327.27   38.30
   3  -4  -3  264.37   44.60
  -3  -4   3  280.27   33.80
  -3  -4   3  239.18   43.40
  -3   0  -4   -0.50    2.70
   3   0  -4    1.30    4.90
  -3   0   4    1.50    6.40
   3   0  -4    1.90    5.50
  -3   0  -4    2.40    5.20
  -3   0  -4   -0.10    4.70
   3   0   4   -1.50    3.80
   3   0   4    7.00    3.80
  -3  -1  -4 2290.87  161.28
  -3  -1  -4 2255.77  163.98
  -3   1   4 2447.46  164.38
   3   1  -4 2181.48  160.78
   3   1  -4 2279.97  162.98
  -3  -1  -4 2363.66  161.38
   3  -1   4 2160.08  161.68
  -3  -1   4 1909.51  160.88
   3   1   4 2436.56  161.38
   3  -1  -4 2323.47  164.18
  -3   1  -4 2198.58  161.18
  -3   1  -4 2257.27  161.58
  -3  -1   4 2392.46  163.48
  -3  -2  -4   -3.00   13.00
   3  -2   4    2.40   14.00
  -3  -2  -4   -9.70    6.30
  -3  -2  -4    2.50   11.10
  -3   2   4   12.70   12.70
  -3  -2  -4   10.30   10.40
   3  -2   4   -0.20    7.50
   3   2  -4    6.70    8.10
  -3   2  -4    6.60    9.60
   3   2   4    3.80   11.20
   3  -2  -4   -3.70   11.30
  -3  -2   4   -5.80   10.40
  -3  -2   4    6.10    9.40
   3  -2  -4    4.10   12.20
  -3  -2   4   10.90   11.80
   3  -3   4  335.77   46.60
   3  -3   4  457.55   46.30
  -3   3   4  500.25   48.30
  -3  -3  -4  365.56   45.80
  -3  -3  -4  456.25   39.20
  -3  -3  -4  393.56   47.00
   3   3  -4  416.16   36.60
  -3  -3   4  407.36   43.40
  -3  -3   4  408.16   45.10
   3   3   4  531.15   39.80
  -3  -3   4  501.25   37.60
  -3   3  -4  398.16   42.10
   3  -3  -4  377.86   47.10
   3  -4   4  -49.10   27.10
  -3   4   4   26.80   29.50
   3   4  -4   21.00   17.50
   3  -4   4   16.50   18.00
  -3  -4  -4   36.80   28.50
  -3  -4  -4   31.90   29.70
  -3  -4  -4   53.49   24.50
   3  -4  -4   63.69   40.40
  -3  -4   4   26.40   28.00
  -3  -4   4   24.60   20.70
   3   4   4   58.69   23.60
   3  -4  -4   44.90   25.30
   3   0   5    5.30    4.00
   3   0  -5   -1.70    5.20
   3   0  -5   -2.40    6.00
   3   0   5   11.20    6.50
  -3   0  -5    1.50    5.10
  -3   0   5   -0.70    6.30
  -3   0  -5    1.10    6.20
   3   1  -5  805.22   57.19
  -3  -1  -5  775.22   60.69
  -3   1   5  770.92   61.29
   3   1  -5  861.91   59.69
  -3  -1  -5  816.72   58.49
  -3  -1  -5  801.02   57.79
   3  -1  -5  875.01   61.99
  -3   1  -5  827.02   58.29
  -3  -1   5  675.03   57.49
   3  -1  -5  818.12   58.39
  -3  -1   5  729.33   60.19
   3   1   5  743.83   57.89
   3  -2   5  410.76   37.00
  -3  -2  -5  416.36   42.70
   3   2  -5  422.46   32.40
   3  -2   5  369.86   31.70
  -3  -2  -5  403.56   39.80
  -3  -2  -5  441.36   34.50
  -3   2   5  409.76   40.40
  -3  -2  -5  428.16   33.40
  -3   2  -5  434.26   35.20
   3  -2  -5  439.96   35.00
  -3  -2   5  404.66   37.40
   3  -2  -5  402.86   40.40
  -3  -2   5  376.86   33.00
  -3  -2   5  427.66   42.40
   3   2   5  414.46   34.70
  -3  -3  -5   66.29   21.40
  -3  -3  -5   45.70   24.60
   3  -3   5   87.09   22.70
  -3   3   5   61.59   11.30
  -3   3   5   67.29   23.70
   3   3  -5   88.69   16.60
  -3  -3  -5  122.89   21.90
  -3  -3   5   70.29   20.20
   3   3   5  103.49   19.90
   3  -3  -5   64.59   22.50
  -3  -3   5   74.49   24.60
  -3  -3   5   88.49   16.70
  -3   4   5  240.28   47.60
  -3  -4  -5  299.77   36.60
   3  -4   5  153.38   38.80
   3   4  -5  272.77   29.10
  -3  -4  -5  348.07   47.50
   3  -4   5  219.48   30.70
  -3  -4  -5  140.19   37.80
   3   4   5  210.38   33.70
  -3  -4   5  134.79   37.80
   3  -4  -5  252.57   44.10
   3  -4  -5  338.67   38.90
  -3  -4   5  195.78   30.00
   3   0   6   -1.70    4.10
  -3   0   6   -0.80    7.10
  -3   0  -6   -5.60    6.90
   3   0   6    1.50    6.90
   3   0  -6   -2.00    7.00
  -3   0  -6    3.00    5.80
   3   0  -6   -0.20    5.90
  -3   0  -6   -2.20    4.80
   3   1  -6 1899.01  131.99
   3  -1   6 1821.62  131.19
  -3  -1  -6 1889.21  133.29
  -3  -1  -6 1932.11  135.99
  -3  -1  -6 1836.32  135.59
  -3   1   6 1913.41  136.39
   3  -1   6 1713.03  132.79
  -3  -1  -6 1750.82  132.49
   3   1  -6 2048.10  134.49
   3  -1  -6 1769.02  132.89
   3  -1  -6 1974.20  136.69
  -3   1  -6 1812.42  133.19
  -3  -1   6 1795.82  134.69
   3   1   6 1862.61  132.69
  -3   2   6   11.30   11.60
   3   2  -6   13.00    7.80
   3  -2   6   11.90    6.60
  -3   2   6   -2.60    8.40
   3  -2   6   16.90   11.50
  -3  -2  -6   -0.70   11.90
  -3  -2  -6   14.40   11.80
  -3  -2  -6  -15.70   13.10
   3   2   6   19.80   12.90
  -3  -2   6    8.30   11.30
   3  -2  -6    6.60   11.90
   3  -2  -6   -5.20   13.00
  -3  -2   6    7.90   10.40
  -3  -2   6   -2.60   11.90
  -3  -3  -6  363.46   43.10
  -3  -3  -6  439.06   47.50
  -3  -3  -6  337.07   47.20
   3  -3   6  477.25   46.50
  -3   3   6  397.86   48.30
  -3   3   6  456.45   34.80
   3  -3   6  347.17   37.30
  -3  -3   6  474.45   36.80
  -3  -3   6  436.96   45.60
   3   3   6  465.05   40.20
  -3  -3   6  442.06   38.10
   3  -3  -6  459.25   43.40
   3  -3  -6  430.46   48.20
  -3  -3   6  397.16   43.70
   3  -4   6   15.60   31.20
  -3  -4  -6   37.90   26.40
   3   4  -6   14.70   16.90
  -3  -4  -6   42.70   32.20
  -3  -4  -6   -0.50   22.20
   3  -4   6   21.60   19.10
  -3   4   6   -0.70   27.10
   3   4   6   49.10   24.10
  -3  -4   6   26.40   30.10
   3  -4  -6   33.10   29.20
  -3  -4   6    5.80   21.80
   3  -4  -6   28.90   32.70
   3   0  -7   -4.40    6.40
   3   0   7    3.00    4.60
  -3   0   7   -2.00    7.90
   3   0  -7   -2.70    8.00
  -3   0  -7   -2.80    5.80
  -3   0  -7    1.10    5.90
  -3   0  -7    2.20    4.90
  -3   0  -7   -0.20    8.20
   3   0   7    0.70    8.30
  -3  -1  -7   24.20   10.50
  -3  -1  -7   20.80   10.40
  -3   1   7   34.90   12.20
  -3  -1  -7   40.90    9.40
   3  -1   7   24.00    9.30
   3   1  -7   41.30    6.90
   3   1  -7   31.40    8.20
  -3  -1  -7   27.00    9.50
   3  -1  -7   24.50    9.80
  -3  -1   7   28.30    7.70
   3   1   7   34.80    9.70
   3  -1  -7   19.90   13.20
   3   1   7   40.00    9.90
  -3  -1   7    6.90    7.90
  -3  -2  -7  164.08   26.20
   3   2  -7  157.48   16.10
   3  -2   7  169.48   14.90
  -3   2   7  178.88   28.40
  -3  -2  -7  169.98   20.80
  -3   2   7  134.99   20.70
  -3  -2  -7  166.08   27.50
  -3  -2   7  149.49   19.00
   3  -2  -7  172.88   32.20
  -3  -2   7  159.88   24.50
   3   2   7  182.88   21.80
   3  -2  -7  175.58   21.20
  -3  -2   7  185.98   23.60
  -3  -3  -7  -14.30   16.90
   3  -3   7   -3.90   20.90
   3  -3   7   17.70   15.00
  -3  -3  -7    1.50   20.00
  -3  -3  -7   49.00   23.20
  -3   3   7   19.40   24.40
   3  -3   7   15.00   14.00
  -3   3   7   13.20   10.80
  -3  -3   7   18.10   15.70
  -3  -3   7    9.40   18.60
  -3  -3   7   -0.60   17.40
   3  -3  -7   14.40   18.40
   3   3   7   23.30   19.40
   3  -3  -7   20.10   24.70
  -3  -3   7    4.90   12.90
  -3  -4  -7   82.89   35.10
   3  -4   7  113.89   21.70
   3  -4   7  109.19   36.50
  -3  -4  -7  103.99   30.20
  -3   4   7   79.79   42.00
   3   4  -7   87.89   18.30
  -3  -4  -7   42.90   33.60
  -3  -4   7   91.39   33.30
   3  -4  -7   72.59   34.20
   3  -4  -7  110.59   32.10
  -3  -4   7   91.19   24.70
   3   4   7  128.59   28.80
  -3  -4   7   62.09   14.50
   3   0  -8   -5.30    6.90
   3   0   8    4.70    5.10
   3   0   8    3.10    9.50
   3   0  -8    8.30    9.00
  -3   0  -8   -2.10    5.20
  -3   0   8   -6.60   16.00
  -3  -1  -8 1594.74  111.79
   3  -1   8 1425.56  108.59
  -3  -1  -8 1414.66  107.49
  -3   1   8 1542.75  112.39
   3   1  -8 1583.74  106.49
  -3  -1  -8 1616.64  111.39
   3  -1  -8 1386.36  107.99
  -3  -1   8 1451.05  108.89
   3   1   8 1516.85  107.69
   3  -1  -8 1507.35  118.49
   3   1   8 1427.36  108.79
  -3  -2  -8    6.20   13.00
  -3  -2  -8   -3.20   13.60
   3   2  -8    8.70    6.90
   3  -2   8    8.70    6.20
  -3  -2  -8   -1.50   14.80
   3  -2   8   11.30    5.90
  -3   2   8   -2.20   17.30
  -3   2   8   -7.10   11.60
   3   2   8    8.60   14.50
   3  -2  -8  -15.50   12.70
  -3  -2   8   -0.70   11.00
  -3  -2   8   -0.30   12.20
  -3  -2   8  -11.70   12.40
   3  -2  -8   -5.60   15.80
  -3   3   8  349.37   31.60
   3  -3   8  367.66   37.50
  -3  -3  -8  220.88   42.70
  -3  -3  -8  347.77   44.30
   3   3  -8  243.58   34.40
   3  -3   8  334.67   46.70
   3  -3   8  315.07   32.80
  -3   3   8  329.87   46.00
  -3  -3   8  353.36   40.90
   3  -3  -8  326.27   34.80
  -3  -3   8  361.26   34.30
  -3  -3   8  315.97   39.40
   3   3   8  388.26   36.90
  -3  -3   8  317.17   32.30
   3  -3  -8  225.98   43.90
   3  -4   8   59.39   37.20
  -3   4   8  -41.20   30.70
  -3  -4  -8   -7.40   32.20
  -3  -4  -8  -22.10   33.00
   3  -4   8    5.90   18.50
  -3  -4  -8   -1.40   28.60
   3  -4  -8    4.80   31.40
  -3  -4   8  -19.10   14.90
  -3  -4   8  -46.50   31.50
   3   4   8   51.69   27.00
   3  -4  -8   34.70   31.60
  -3  -4   8  -17.60   25.00
  -3   0   9    4.10    9.60
   3   0  -9    0.60    6.50
  -3   0  -9   -0.90    5.50
   3   0  -9   -0.80    7.80
   3   0  -9    5.80   10.00
   3   0   9    1.70   10.60
  -3  -1  -9  117.69   17.70
   3  -1   9   65.39   14.20
  -3   1   9   83.89   18.10
  -3  -1  -9   67.59   15.40
   3   1  -9   87.99    9.60
  -3  -1  -9   92.19   12.70
   3  -1  -9   69.89   19.10
   3   1   9   66.39   14.60
   3  -1  -9   92.09   15.00
   3   1   9   96.89   13.80
  -3   2   9   82.99   16.20
   3   2  -9   96.09   11.10
  -3  -2  -9  118.09   17.80
  -3  -2  -9   88.49   22.70
  -3   2   9  123.69   25.00
   3  -2  -9  107.19   18.20
   3   2   9  133.99   20.00
  -3  -2   9  107.79   16.90
  -3  -2   9   81.49   14.00
  -3   3   9   62.79   40.60
  -3  -3  -9  -13.70   20.50
   3  -3   9    6.20   14.00
  -3   3   9   27.70   14.40
  -3  -3   9   -1.30   26.80
   3  -3  -9  -16.10   21.70
   3  -3  -9   22.10   20.00
   3   3   9   67.99   26.80
  -3  -3   9  -36.70   28.40
  -3  -3   9   -3.40   16.70
  -3  -3   9   19.20   15.90
   3  -4   9   89.09   20.70
  -3  -4  -9  105.19   33.00
   3  -4   9  132.09   32.60
  -3  -4  -9   30.50   38.50
   3  -4  -9  115.59   53.59
  -3  -4   9   66.59   35.50
  -3  -4   9   93.69   40.40
  -3  -4   9   80.19   18.90
  -3   0  10   -2.20   11.20
   3   0  10    1.10   12.00
  -3   0 -10    2.70    5.40
   3   0 -10    1.80   10.90
   3   0 -10   -1.40    8.10
  -3   1  10  841.52   73.59
  -3  -1 -10  911.61   72.89
   3  -1  10  880.71   71.69
  -3  -1 -10 1023.70   72.89
  -3  -1 -10  931.11   68.59
   3   1 -10  935.01   66.29
  -3   1  10  877.31   72.19
   3   1  10  858.51   70.89
   3   1  10 1009.30   69.09
   3  -1 -10 1038.90   75.99
   3   2 -10    6.30    5.00
   3  -2  10    9.30   15.90
  -3  -2 -10   13.30   18.70
  -3   2  10   20.10   16.70
  -3   2  10   10.10   14.50
  -3  -2 -10   25.30   14.90
  -3  -2 -10   -8.70   14.40
  -3  -2  10   -2.70    8.90
   3  -2 -10   15.80   19.60
   3   2  10   20.80   16.30
   3  -2 -10    2.40   15.10
  -3  -2  10  -19.20   27.60
  -3  -3 -10  100.49   31.90
  -3   3  10  143.09   34.70
  -3   3  10  109.79   21.90
  -3  -3 -10  290.57   45.00
   3  -3  10  169.48   16.70
  -3  -3  10  179.88   32.10
  -3  -3  10  169.08   24.00
   3  -3 -10  231.78   31.60
   3   3  10  203.78   43.90
   3  -3 -10   93.59   28.80
  -3  -3  10  218.68   32.60
  -3   0 -11    0.90    5.60
  -3   0  11  -19.40   14.10
  -3   0  11    9.90   11.90
   3   0 -11   -7.00   10.20
   3   0  11    4.20   13.90
   3   0 -11   -4.10    8.60
   3  -1  11   37.70   15.40
  -3   1  11   45.60   17.90
  -3  -1 -11   17.80   14.00
  -3  -1 -11   38.00   11.40
  -3  -1 -11   10.50   11.60
  -3   1  11   14.70   15.20
   3   1  11   39.90   15.50
   3  -1 -11   26.80   14.00
   3  -1 -11   24.50   17.00
  -3  -1  11   20.00   15.90
  -3   2  11   88.09   26.30
  -3  -2 -11  104.99   18.90
   3  -2  11   73.29   19.50
  -3  -2 -11   67.19   21.70
  -3   2  11   59.29   18.40
  -3  -2 -11   80.39   20.50
   3  -2 -11   63.49   40.20
   3  -2 -11  104.89   18.50
  -3  -2  11   70.69   19.20
  -3   3  11   14.80   16.70
  -3  -3 -11  -29.10   23.60
  -3  -3 -11   25.50   25.30
  -3  -3  11   -3.70   19.20
   3  -3 -11   -6.10   23.20
   3   0  12   18.10   16.00
  -3   0  12   -0.70   15.90
  -3   0  12    1.90   12.50
   3   0 -12    3.70    7.00
   3   0 -12    3.60    9.00
   3   0 -12   -4.10   10.90
  -3  -1 -12  370.36   35.20
  -3  -1 -12  338.27   29.50
  -3   1  12  337.97   38.40
  -3   1  12  305.67   37.10
   3  -1  12  336.17   38.00
   3   1  12  347.27   38.30
  -3  -1  12  340.87   39.40
   3  -1 -12  345.27   29.90
  -3  -2 -12   12.20   16.40
  -3   2  12  -12.60   17.50
  -3  -2 -12    5.00   22.10
  -3  -2 -12    9.40   16.40
   3  -2 -12   12.20   16.70
  -3  -2  12   -9.40   18.70
   3  -2 -12   -4.00   23.80
  -3  -3 -12   28.70   18.10
  -3  -3 -12   77.59   27.70
  -3   3  12   49.00   20.00
  -3  -3  12   57.69   22.50
   3  -3 -12  109.49   27.50
   3   0 -13    0.60    6.80
   3   0 -13    2.00    8.90
  -3   0  13   -5.30   18.00
   3   0  13    6.50   17.00
  -3   1  13   77.19   25.60
   3  -1  13   68.69   20.10
  -3  -1 -13   75.19   13.60
  -3  -1 -13   61.49   19.20
  -3   1  13   70.69   19.90
  -3  -1 -13   65.09   16.30
   3  -1 -13   96.59   14.70
  -3  -1  13   52.29   20.40
   3   1  13   66.09   19.90
   3  -1 -13   46.60   19.70
   3  -1 -13   74.89   16.80
  -3  -2 -13   16.60   19.00
  -3   2  13   30.90   20.00
  -3  -2 -13   60.19   17.90
  -3  -2  13   21.70   21.00
   3  -2 -13   62.19   19.20
   3   0 -14    3.30    8.70
  -3   0  14  -13.40   18.90
   3   0  14    6.50   18.90
   3   0 -14    4.50    7.10
  -3   1  14  342.57   43.40
   3  -1  14  349.77   41.60
  -3  -1 -14  274.27   44.90
  -3  -1  14  351.96   41.70
   3  -1 -14  348.27   30.10
  -3   2  14   -8.00   21.20
  -3  -2 -14  -19.70   18.10
  -3  -2 -14    1.20   18.10
   3  -2 -14    3.20   18.30
  -3  -2  14  -35.70   21.80
   3   0 -15   -7.90    5.40
   3   0 -15   -7.30    5.00
   3  -1  15    2.80   29.70
  -3  -1 -15  -15.90   14.50
  -3   1  15    0.20   28.10
  -3  -1 -15    5.20   12.00
  -3  -1  15   -1.90   24.20
   3  -1 -15    0.40   12.00
   3  -1 -15    6.60   15.60
  -3   0  16    1.40   23.70
   3   0  16    5.40   23.60
  -3   1  16   88.19   36.90
   4   0   0 1897.81  134.89
  -4   0   0 1818.12  136.69
   4   0   0 1902.01  136.89
  -4   0   0 1963.80  134.99
  -4   1   0  321.07   27.60
  -4  -1   0  341.07   25.10
  -4  -1   0  301.67   27.60
   4   1   0  280.57   25.60
   4   1   0  331.87   34.70
   4  -1   0  335.77   28.10
  -4   2   0  478.45   41.00
  -4  -2   0  433.96   39.80
  -4  -2   0  417.96   35.60
   4   2   0  437.26   35.80
   4  -2   0  453.65   36.40
  -4  -2   0  483.55   40.70
   4  -2   0  454.55   40.50
   4  -3   0  238.18   38.30
  -4   3   0  259.67   43.80
   4  -3   0  256.47   37.60
  -4  -3   0  262.87   33.50
   4   3   0  265.37   27.30
  -4  -3   0  252.77   36.80
  -4  -4   0   95.19   29.30
  -4  -4   0   21.10   28.80
  -4   4   0   44.70   23.60
   4   4   0   69.09   21.50
  -4  -4   0   98.29   24.40
   4  -4   0   13.30   28.80
   4  -4   0   58.49   23.10
   4   0   1 1345.07   90.19
   4   0  -1 1248.48   90.19
  -4   0  -1 1179.88   90.09
  -4   0   1 1271.07   92.29
  -4   0  -1 1104.59   91.59
   4   0  -1 1191.38   92.09
   4   0   1 1367.76   92.29
  -4   0   1 1374.76   90.39
  -4  -1  -1  121.89   17.00
   4   1  -1  106.09   11.90
   4  -1   1  118.89   15.30
  -4  -1  -1  113.79   12.40
   4   1  -1  101.59   14.10
  -4   1   1  105.89   15.50
  -4  -1   1  122.59   15.00
  -4  -1   1  122.69   12.00
   4   1   1  116.39   14.60
   4  -1  -1  103.69   16.30
   4  -2   1  400.66   34.90
  -4  -2  -1  447.36   34.90
  -4  -2  -1  487.25   40.20
  -4  -2  -1  428.26   38.70
   4  -2   1  400.16   38.70
   4   2  -1  451.85   34.60
  -4   2   1  423.56   43.90
   4  -2  -1  457.25   35.60
   4   2   1  389.26   34.70
  -4   2  -1  467.55   39.20
  -4  -2   1  419.16   38.70
   4  -2  -1  477.55   40.30
  -4  -2   1  393.86   34.60
  -4  -3  -1  402.76   44.80
  -4  -3  -1  338.77   30.40
   4   3  -1  390.46   34.90
  -4  -3  -1  397.76   45.60
   4  -3   1  447.66   38.60
  -4   3   1  368.26   42.90
   4  -3   1  347.47   44.20
   4  -3  -1  440.76   46.20
   4   3   1  406.86   36.00
  -4  -3   1  423.96   44.60
  -4   3  -1  377.56   42.30
  -4  -3   1  402.26   42.10
   4  -3  -1  383.36   45.20
  -4  -3   1  479.75   38.20
   4  -4   1   50.39   21.90
  -4  -4  -1   60.19   30.80
   4  -4   1   41.90   32.90
  -4   4   1   13.00   25.30
   4   4  -1   84.09   21.30
  -4  -4  -1   56.49   28.10
  -4  -4  -1   67.99   24.40
   4  -4  -1   77.49   24.50
  -4  -4   1   83.19   23.20
  -4  -4   1  101.49   29.80
  -4  -4   1   14.30   25.60
   4  -4  -1    1.90   29.60
   4   4   1   77.09   21.80
   4   0   2 1468.05  107.49
   4   0  -2 1616.44  107.79
   4   0  -2 1596.04  110.09
  -4   0  -2 1397.56  107.39
   4   0   2 1477.85  109.29
  -4   0   2 1499.05  109.89
   4   1  -2  107.99   11.00
  -4  -1  -2  116.19   14.20
   4  -1   2   74.39   13.80
  -4  -1  -2  111.49   11.40
  -4   1   2   97.99   15.10
   4   1  -2  108.49   13.40
  -4   1  -2   95.59   13.20
   4   1   2   75.59   13.10
  -4  -1   2   67.29   10.90
   4   1   2   71.49   11.00
  -4  -1   2   73.79   13.80
   4  -1  -2   96.39   17.00
  -4  -2  -2  248.48   29.30
   4  -2   2  268.17   24.00
  -4  -2  -2  241.08   24.30
  -4   2   2  299.17   31.30
  -4  -2  -2  241.98   28.40
   4   2  -2  245.58   23.60
   4  -2   2  288.17   29.60
  -4  -2   2  328.87   29.30
  -4   2  -2  319.97   39.50
   4   2   2  275.97   24.90
   4  -2  -2  242.68   30.00
   4  -2  -2  256.77   25.70
  -4   2  -2  270.07   21.30
  -4  -2   2  281.67   24.20
  -4   3   2  391.26   43.70
  -4  -3  -2  394.46   44.20
   4  -3   2  346.87   43.10
  -4  -3  -2  350.16   29.70
   4   3  -2  391.16   34.00
  -4  -3  -2  408.16   42.80
   4  -3   2  351.36   37.00
   4   3   2  397.76   35.20
  -4  -3   2  396.16   34.10
  -4  -3   2  385.66   41.50
   4  -3  -2  406.56   45.10
  -4  -3   2  323.97   41.70
   4  -3  -2  384.56   38.40
  -4  -4  -2   76.19   29.00
  -4   4   2   11.50   28.40
   4  -4   2   39.50   32.10
   4  -4   2   45.50   21.00
  -4  -4  -2   34.10   30.80
  -4  -4  -2   74.99   23.70
   4   4  -2   72.39   20.90
   4  -4  -2   51.39   25.20
  -4  -4   2   33.20   26.40
  -4  -4   2   63.39   28.90
   4  -4  -2   46.70   31.70
  -4  -4   2   61.59   22.70
   4   4   2   51.89   22.20
  -4   4  -2   32.80   24.40
  -4   0   3 1971.90  124.19
  -4   0  -3 1577.94  122.69
  -4   0  -3 1438.76  120.89
   4   0   3 1642.74  120.99
  -4   0   3 1851.11  121.49
   4   0   3 1842.02  123.09
   4   0  -3 1607.64  123.39
   4   1  -3   27.20    7.40
  -4   1   3   29.90   10.30
   4   1  -3   19.90    7.30
  -4  -1  -3   28.00    8.60
   4  -1   3   24.30    7.10
   4  -1   3   30.40    6.10
  -4  -1  -3   38.90    8.40
   4   1   3   39.40   10.20
   4   1   3   32.00    8.10
  -4  -1   3   39.70    8.00
  -4   1  -3   17.70   11.70
  -4   1  -3   25.10    7.80
   4  -1  -3   27.00   11.70
  -4  -1   3   34.40    9.50
  -4  -2  -3  174.98   24.70
  -4  -2  -3  202.08   20.30
   4   2  -3  186.08   18.60
  -4  -2  -3  187.58   18.70
  -4  -2  -3  186.38   24.30
   4  -2  -3  160.58   20.90
  -4   2  -3  179.58   22.90
   4  -2  -3  176.18   26.30
  -4   2  -3  195.18   17.00
   4  -3   3  141.29   27.70
  -4  -3  -3  211.58   32.80
  -4  -3  -3  167.68   20.80
  -4   3   3  182.28   15.60
   4   3  -3  184.78   27.60
  -4  -3  -3  235.68   35.40
   4  -3   3  221.18   27.30
  -4   3   3  215.48   35.40
  -4  -3   3  169.48   30.90
  -4  -3   3  202.28   24.90
   4  -3  -3  260.27   30.10
   4  -3  -3  208.88   35.80
  -4   3  -3  202.58   29.90
  -4  -3   3  155.38   28.80
   4   3   3  208.58   25.40
  -4  -4  -3   70.39   25.40
   4  -4   3   54.19   31.40
  -4  -4  -3   -4.60   32.60
  -4  -4  -3   34.80   28.70
   4  -4   3   67.49   20.60
  -4   4   3   47.80   33.10
   4   4  -3   63.79   20.20
  -4  -4   3   92.99   23.70
  -4  -4   3  122.89   30.20
   4  -4  -3   78.89   26.90
  -4  -4   3  101.09   30.30
   4   4   3  104.79   24.40
   4  -4  -3   21.70   28.40
   4   0  -4 4231.38  290.47
  -4   0  -4 4080.69  291.77
   4   0   4 4025.40  291.77
   4   0  -4 4449.45  292.97
   4   0   4 3511.05  289.77
  -4   0   4 4348.46  292.87
  -4   1   4  162.38   19.70
  -4  -1  -4  127.39   16.30
  -4  -1  -4  130.69   16.20
   4  -1   4  143.69   20.10
   4  -1   4  135.49   12.60
  -4  -1  -4  116.59   16.30
   4   1  -4  125.79   16.70
   4   1  -4  139.39   14.00
   4   1   4  173.88   15.00
   4  -1  -4  137.09   20.40
  -4   1  -4  137.89   15.20
  -4   1  -4  141.59   15.70
  -4  -1   4  160.68   19.20
  -4  -1   4  160.08   14.80
   4   2  -4 1089.09   82.19
  -4  -2  -4 1015.10   87.49
  -4  -2  -4 1077.59   87.39
   4  -2   4 1187.08   82.19
  -4  -2  -4 1115.59   83.09
  -4  -2  -4 1238.48   82.39
  -4   2   4 1182.28   88.89
   4  -2   4 1086.09   88.39
  -4   2  -4 1114.49   84.89
  -4  -2   4 1176.58   91.89
  -4  -2   4 1097.09   82.59
   4   2   4 1147.39   83.29
   4  -2  -4 1067.79   87.79
   4  -2  -4 1135.29   83.79
  -4   2  -4 1201.98   81.79
  -4  -3  -4  366.36   46.10
  -4   3   4  297.37   27.30
   4  -3   4  301.37   41.10
  -4  -3  -4  329.57   40.80
  -4  -3  -4  336.37   43.30
  -4   3   4  364.46   43.90
   4  -3   4  341.67   31.60
   4  -3  -4  380.76   36.40
   4  -3  -4  310.07   42.90
  -4   3  -4  357.06   37.60
  -4  -3   4  325.67   41.10
  -4  -3   4  382.96   33.10
   4   3   4  383.26   34.50
  -4  -3   4  349.87   39.50
   4  -4   4   40.90   19.20
   4   4  -4   88.79   20.30
  -4  -4  -4   51.39   32.90
   4  -4   4   24.50   33.50
  -4   4   4   38.10   33.40
  -4  -4  -4   55.69   27.70
  -4  -4  -4   82.49   26.70
   4  -4  -4   96.19   46.40
  -4  -4   4   91.99   31.50
   4  -4  -4   63.49   27.90
   4   4   4   84.39   25.20
  -4  -4   4   74.79   23.20
  -4   0   5 2027.30  148.89
   4   0   5 1808.12  145.69
  -4   0  -5 2327.37  148.09
   4   0  -5 1943.71  146.49
  -4   0  -5 2366.16  147.29
   4   0  -5 2390.06  149.59
   4   0   5 1749.53  147.49
  -4   0  -5 1874.31  145.89
   4   1  -5  195.28   20.20
   4  -1   5  175.68   17.80
  -4  -1  -5  160.28   20.60
  -4  -1  -5  198.48   19.60
   4  -1   5  159.38   15.70
   4   1  -5  194.88   17.00
  -4   1   5  200.48   23.20
  -4  -1  -5  211.58   25.40
  -4  -1   5  193.58   22.00
   4   1   5  212.58   18.10
  -4   1  -5  182.18   18.20
  -4  -1   5  203.08   18.00
   4  -1  -5  206.58   23.90
  -4   1  -5  197.58   18.20
  -4  -2  -5  583.34   53.09
  -4  -2  -5  586.44   55.49
  -4   2   5  623.24   54.39
  -4  -2  -5  637.24   47.60
   4   2  -5  581.84   46.00
  -4  -2  -5  680.53   47.20
   4  -2   5  653.43   50.39
   4  -2   5  576.94   45.50
  -4  -2   5  565.74   46.80
   4  -2  -5  627.44   48.40
   4  -2  -5  607.24   53.49
  -4   2  -5  641.44   49.10
  -4  -2   5  594.54   51.39
   4   2   5  579.54   47.70
   4  -3   5  106.69   25.40
   4  -3   5  125.09   18.10
  -4  -3  -5   64.49   33.50
  -4   3   5  123.99   16.10
   4   3  -5  105.09   25.40
  -4  -3  -5  118.49   26.70
  -4   3   5  157.48   42.30
  -4  -3   5  115.89   22.70
   4  -3  -5  166.58   24.50
  -4  -3   5  151.98   22.80
  -4   3  -5  109.99   23.70
   4  -3  -5  105.99   23.60
  -4  -3   5  131.39   26.90
   4   3   5  141.09   22.10
  -4   4   5   68.69   36.00
   4   4  -5   96.19   20.80
  -4  -4  -5  105.69   29.20
   4  -4   5   52.99   33.00
  -4  -4  -5   81.29   31.60
   4  -4   5   64.29   20.60
   4   4   5   94.29   25.70
   4  -4  -5  130.69   30.60
   4  -4  -5   88.89   30.20
  -4  -4   5   89.59   33.70
  -4  -4   5   72.09   24.60
  -4   0  -6  209.28   20.40
   4   0   6  199.58   16.60
   4   0  -6  178.38   17.70
   4   0  -6  235.88   22.20
  -4   0  -6  182.08   27.30
  -4   0   6  216.38   22.90
   4  -1   6  131.09   13.60
  -4  -1  -6  145.79   20.00
  -4  -1  -6  181.18   18.20
   4   1  -6  169.98   19.10
   4   1  -6  161.08   15.20
  -4  -1  -6  171.88   18.70
  -4   1   6  173.88   22.20
  -4  -1  -6  147.29   19.70
  -4  -1   6  150.18   16.80
  -4   1  -6  159.38   18.80
  -4  -1   6  157.68   20.60
   4   1   6  176.78   16.90
   4  -1  -6  183.68   24.30
   4  -2   6  341.67   29.40
  -4  -2  -6  375.66   39.50
   4   2  -6  354.16   30.30
  -4   2   6  490.55   43.20
  -4  -2  -6  368.46   32.60
  -4  -2  -6  333.87   37.40
   4  -2   6  428.26   35.00
  -4  -2  -6  377.56   32.80
   4  -2  -6  311.47   38.80
  -4   2  -6  380.16   32.90
   4   2   6  405.36   33.70
  -4  -2   6  411.36   32.30
  -4  -2   6  433.86   38.20
   4  -2  -6  347.47   33.30
  -4  -3  -6  124.59   25.30
   4  -3   6   74.89   23.00
   4   3  -6  103.79   16.00
  -4  -3  -6   53.89   24.40
   4  -3   6   63.09   14.40
  -4   3   6   51.09   11.40
  -4   3   6   84.39   23.10
   4  -3  -6   88.39   21.10
  -4  -3   6   46.00   21.40
  -4  -3   6   76.99   18.50
  -4  -3   6   51.89   22.20
   4   3   6   92.59   20.80
   4  -3  -6   91.89   22.70
   4  -4   6   25.80   20.30
  -4   4   6   19.50   28.90
  -4  -4  -6  -11.40   30.60
   4  -4   6   52.19   33.00
   4   4  -6   30.10   17.70
  -4  -4  -6   35.50   31.10
  -4  -4  -6   47.60   28.10
   4  -4  -6   19.60   29.50
  -4  -4   6   12.50   11.70
   4   4   6   76.79   26.10
   4  -4  -6    1.30   28.30
  -4  -4   6   -4.80   29.90
  -4  -4   6   17.60   24.30
  -4   0  -7  451.15   36.90
  -4   0  -7  449.76   35.20
   4   0  -7  430.76   37.90
   4   0  -7  408.46   34.40
   4   0   7  487.75   33.20
  -4   0  -7  444.76   36.10
   4   1  -7  230.98   18.80
  -4  -1  -7  212.08   20.20
  -4   1   7  226.38   27.30
  -4  -1  -7  231.68   23.90
  -4  -1  -7  230.08   24.10
  -4  -1  -7  222.58   24.50
   4   1  -7  218.98   22.70
   4  -1  -7  237.38   28.30
  -4  -1   7  151.68   24.00
   4   1   7  207.68   20.50
  -4  -1   7  178.38   19.60
   4  -1  -7  221.08   21.10
  -4   1  -7  228.08   22.60
   4  -2   7  356.46   27.20
  -4  -2  -7  352.26   32.00
   4  -2   7  380.36   32.10
  -4  -2  -7  297.77   37.60
  -4   2   7  399.76   40.30
   4   2  -7  350.66   28.40
  -4  -2  -7  354.46   32.00
  -4  -2  -7  341.47   36.70
   4   2   7  359.96   31.90
   4  -2  -7  336.57   32.00
  -4  -2   7  372.36   30.80
   4  -2  -7  277.57   38.50
  -4   3   7  177.78   32.10
  -4   3   7  199.68   22.70
   4   3  -7  168.28   20.80
   4  -3   7  244.38   35.80
  -4  -3  -7  182.38   34.70
  -4  -3  -7  169.48   31.40
   4  -3   7  182.68   20.90
   4  -3  -7  164.58   32.90
   4   3   7  210.88   29.60
  -4  -3   7  215.68   33.60
  -4  -3   7  194.68   26.00
  -4  -3   7  154.48   27.30
   4  -3  -7  158.28   26.40
  -4  -4  -7   -2.00   28.10
  -4  -4  -7  -10.90   28.20
   4   4  -7   36.40   16.80
  -4   4   7  -21.40   34.40
  -4  -4  -7  -24.80   27.50
   4  -4   7   46.70   34.10
   4  -4   7   11.40   19.60
   4   4   7   38.60   25.90
  -4  -4   7   -5.90   13.50
  -4  -4   7   -6.70   28.90
   4  -4  -7    8.90   30.60
   4  -4  -7  -35.40   26.80
  -4  -4   7  -30.30   35.70
  -4   0  -8  266.07   24.90
   4   0   8  262.17   21.10
   4   0  -8  293.57   30.10
   4   0  -8  248.78   22.90
  -4   0  -8  261.67   27.00
  -4   0  -8  266.57   23.80
  -4   0   8  291.37   27.30
  -4   1   8   75.69   16.20
   4   1  -8   63.19   12.40
  -4  -1  -8   77.19   12.10
   4   1  -8   79.49   11.20
  -4  -1  -8   84.09   16.60
  -4  -1  -8   62.29   13.30
  -4  -1  -8   63.69   13.80
   4   1   8   70.89   12.20
   4  -1  -8   92.99   13.80
   4  -1  -8   85.19   18.70
  -4  -1   8   56.59   10.40
  -4  -2  -8  232.68   24.70
   4   2  -8  238.08   19.90
  -4   2   8  217.48   32.80
  -4  -2  -8  225.58   30.50
   4  -2   8  220.28   18.00
   4  -2   8  196.38   18.70
  -4  -2  -8  225.98   31.70
  -4  -2   8  218.78   23.50
  -4  -2   8  203.18   28.60
   4  -2  -8  204.18   33.40
   4  -2  -8  235.88   25.10
   4   2   8  225.88   25.70
  -4  -3  -8  135.89   27.90
  -4   3   8  162.88   23.60
  -4   3   8  188.68   36.60
   4   3  -8  156.68   19.60
   4  -3   8  218.38   39.10
   4  -3   8  149.99   21.40
   4  -3   8  192.78   25.20
  -4  -3  -8  110.19   28.50
  -4  -3  -8  225.88   42.50
  -4  -3   8  190.88   25.70
   4   3   8  227.08   33.90
  -4  -3   8  167.08   27.20
  -4  -3   8  208.08   35.20
  -4  -3   8  133.39   27.40
   4  -3  -8  191.58   26.90
   4   4  -8   21.60   15.00
   4  -4   8   10.90   18.70
  -4  -4  -8    8.30   38.60
  -4   4   8  -74.79   35.70
   4  -4   8   37.90   32.90
  -4  -4  -8   48.00   29.80
  -4  -4  -8  -18.50   22.40
  -4  -4   8   -5.70   15.40
   4  -4  -8   42.80   31.00
  -4  -4   8   -2.00   31.90
   4   4   8   72.19   27.50
   4  -4  -8   39.40   40.20
   4   0   9   64.29   14.60
   4   0  -9  103.09   14.10
   4   0   9   97.89   11.00
  -4   0  -9  118.69   16.20
  -4   0  -9  122.89   15.00
  -4   0   9   92.89   16.30
   4   0  -9  127.09   20.40
  -4   0  -9   96.29   11.40
  -4  -1  -9   55.69   15.00
   4   1  -9   61.59   12.10
   4   1  -9   71.39   10.80
  -4  -1  -9   70.59   16.30
  -4   1   9   46.50   17.00
  -4  -1  -9   67.79   12.40
   4  -1  -9   60.79   19.10
   4  -1  -9   79.99   13.80
   4   1   9   78.39   13.30
  -4  -1   9   52.49   13.90
  -4   2   9   29.50   13.80
   4   2  -9   41.40    8.80
  -4  -2  -9   39.50   19.90
  -4   2   9   43.80   21.10
  -4  -2  -9   66.19   16.50
   4   2   9   63.59   17.60
  -4  -2   9   37.30   13.20
  -4  -2   9   63.09   16.30
  -4  -2   9    2.60   13.90
   4  -2  -9   61.09   16.30
   4  -2  -9   32.10   20.50
  -4  -3  -9   73.69   23.80
  -4   3   9   89.19   16.80
  -4  -3  -9   61.99   43.50
   4   3  -9  111.19   15.60
  -4  -3  -9  165.68   39.10
   4  -3  -9   69.99   30.40
   4  -3  -9   94.79   23.60
  -4  -3   9  117.29   27.30
   4   3   9  129.69   44.50
  -4  -3   9   98.79   20.90
  -4  -3   9  100.49   19.60
   4  -4   9  104.29   29.70
  -4  -4  -9   43.10   31.30
   4  -4   9   -2.70   18.30
   4   4   9   78.49   28.40
  -4  -4   9    0.90   30.00
  -4  -4   9   36.50   34.70
   4   0  10  361.96   33.10
   4   0 -10  383.06   34.20
   4   0 -10  329.07   27.60
  -4   0  10  340.67   33.30
   4   0 -10  319.47   28.40
   4   0  10  403.46   26.60
  -4   0 -10  287.67   26.30
   4   1 -10   38.90   10.80
   4  -1  10   48.60   15.60
  -4  -1 -10   23.00   13.90
   4   1 -10   52.89    8.30
  -4  -1 -10   32.40   13.10
  -4  -1 -10   49.60   11.90
  -4   1  10   37.90   17.60
   4  -1 -10   21.80   17.10
   4   1  10   59.39   13.00
  -4  -1  10   51.59   13.30
   4  -1 -10   39.70   12.80
  -4  -2 -10  175.68   29.70
  -4   2  10  146.99   27.80
  -4   2  10  173.48   25.60
  -4  -2 -10  154.38   27.60
  -4  -2 -10  218.88   24.40
   4   2 -10  180.48   15.80
  -4  -2  10  167.98   25.40
  -4  -2  10  168.48   19.90
   4  -2 -10  180.88   25.30
   4  -2 -10  162.68   31.30
   4   2  10  231.48   25.80
  -4  -3 -10   54.19   36.00
  -4  -3 -10   49.60   30.00
   4  -3  10   78.29   12.20
  -4  -3 -10   98.69   27.60
  -4   3  10  107.49   32.60
  -4   3  10   38.80   20.60
   4   3 -10  102.09   14.00
  -4  -3  10  128.49   24.30
   4  -3 -10   50.89   31.40
   4  -3 -10   81.29   23.80
  -4  -3  10   74.29   20.00
  -4  -3  10   57.49   19.60
   4   3  10  167.68   50.19
   4   0 -11  178.38   18.10
   4   0 -11  161.68   17.60
  -4   0 -11  125.49   13.10
   4   0  11  118.99   20.00
  -4   0  11  152.68   24.80
   4   0 -11  181.68   23.80
   4   1 -11   23.10    6.60
  -4  -1 -11   10.00   13.50
   4  -1  11   22.80   15.70
  -4   1  11   22.30   17.30
  -4  -1 -11   20.50   12.70
  -4   1  11   -6.10   15.20
  -4  -1 -11   24.90   11.80
   4  -1 -11    5.10   17.20
   4  -1 -11   33.20   12.90
   4   1  11   32.70   12.30
   4   2 -11  169.18   13.70
  -4   2  11  183.88   32.90
  -4  -2 -11  165.48   26.40
  -4  -2 -11  195.08   24.70
  -4   2  11  143.79   22.90
   4  -2 -11  180.18   24.80
   4   2  11  246.58   25.80
  -4  -2  11  135.59   23.60
   4  -2 -11  129.39   29.90
  -4  -3 -11   47.80   26.00
  -4  -3 -11    3.50   22.60
  -4   3  11   34.20   18.00
  -4  -3  11   25.70   20.00
   4   3  11  104.79   31.60
   4  -3 -11   33.30   25.30
  -4   0  12  301.67   37.90
  -4   0  12  429.26   43.90
   4   0 -12  332.27   34.00
   4   0 -12  318.47   28.90
   4   0  12  363.26   36.90
  -4  -1 -12   61.89   23.50
  -4   1  12   49.50   20.30
   4   1 -12   70.39    6.40
  -4  -1 -12   62.69   16.30
  -4   1  12   36.90   18.40
  -4  -1 -12   69.89   13.60
  -4  -1  12   41.80   18.90
   4  -1 -12  117.79   24.10
   4  -1 -12   52.69   16.30
   4  -1 -12   39.20   21.30
  -4  -2 -12  188.88   24.60
  -4   2  12  107.69   22.40
  -4  -2 -12  128.79   26.90
   4  -2 -12  169.08   24.70
  -4  -2  12  117.89   23.70
   4  -2 -12  105.29   32.30
  -4   3  12   16.50   19.10
  -4  -3 -12   14.60   25.00
  -4  -3 -12   62.49   15.20
  -4  -3  12   42.90   22.40
   4  -3 -12   42.70   26.70
  -4   0  13  136.29   23.20
   4   0 -13  132.69   17.10
   4   0 -13  136.09   14.60
   4   0 -13  114.99   20.10
  -4   1  13   -4.40   18.10
  -4  -1 -13   -7.00   15.40
  -4  -1 -13   17.40   14.70
  -4  -1 -13   -0.20   11.60
   4  -1 -13    8.40   15.20
   4  -1 -13   16.00   18.80
   4  -1 -13    7.80   14.90
  -4  -1  13  -13.60   18.60
  -4   2  13   93.19   22.60
  -4  -2 -13  105.09   20.30
  -4  -2 -13   69.29   21.60
  -4  -2  13   68.79   22.60
   4  -2 -13   84.99   19.90
   4   0 -14   96.09   12.20
   4   0 -14   94.99   13.60
  -4   0  14   64.29   22.50
  -4  -1 -14    5.50   15.10
  -4   1  14   -6.40   19.90
  -4  -1  14   -8.40   20.50
   4  -1 -14   21.90   15.90
   4  -1 -14   20.80   12.60
  -4   2  14    0.40   21.20
  -4  -2 -14   18.30   18.90
  -4  -2 -14  -11.00   21.20
   4  -2 -14   34.40   20.40
   4   0 -15   89.09   14.10
   4   0 -15   78.99   16.90
  -4   0  15   63.09   26.30
  -4   1  15   14.30   22.60
  -4  -1 -15   -0.30   11.50
  -4  -1 -15  -23.60   14.70
   4  -1 -15   -7.50   15.70
   4  -1 -15   -1.90   10.40
  -4  -1  15  -10.60   21.50
  -4   0  16   49.10   27.80
  -5   0   0   -4.60    5.90
  -5   0   0   -0.60    6.50
   5   0   0   -3.50    5.60
   5   0   0    0.00    5.20
  -5  -1   0  275.77   26.40
   5   1   0  271.77   26.40
   5  -1   0  288.27   26.80
  -5   1   0  283.17   26.90
  -5  -1   0  294.27   23.30
   5   1   0  286.07   23.50
   5  -2   0  405.36   39.10
  -5  -2   0  404.06   33.60
   5  -2   0  401.36   34.10
   5   2   0  396.26   33.40
  -5  -2   0  414.96   38.60
  -5   2   0  433.66   39.20
   5  -3   0   23.30   19.90
  -5   3   0   38.40   28.10
  -5  -3   0   31.50   17.80
   5   3   0   61.39   22.60
  -5  -3   0   88.49   17.70
   5  -3   0   72.49   17.10
  -5  -3   0   28.80   17.20
  -5  -4   0  168.88   35.30
  -5  -4   0  305.17   72.29
   5   4   0  184.28   29.40
   5  -4   0  155.08   37.60
  -5  -4   0  181.78   29.50
   5  -4   0  176.88   28.50
  -5   0  -1    3.20    6.30
   5   0  -1    0.80    5.30
  -5   0  -1   -8.70    5.80
  -5   0   1   -1.70    6.20
   5   0  -1   -1.30    5.60
   5   0   1    0.10    5.60
   5   0   1   -2.40    5.90
   5   1  -1 3296.67  241.38
   5  -1   1 3502.25  243.68
  -5   1   1 3369.76  244.28
  -5  -1  -1 3079.69  245.68
  -5  -1  -1 3548.34  241.48
   5   1  -1 3322.97  244.38
   5  -1  -1 3406.36  244.08
  -5  -1   1 3572.94  244.38
   5   1   1 3310.47  241.38
   5   1   1 3381.46  244.48
  -5  -1   1 3638.94  241.48
   5   2  -1   31.70   11.10
   5  -2   1   13.50   11.30
   5  -2   1    9.60   13.40
  -5  -2  -1   27.40   10.60
  -5   2   1   12.10   13.80
  -5  -2  -1   36.20   12.10
  -5  -2   1   -1.80   10.30
   5   2   1   12.30   11.40
   5  -2  -1   22.70   13.70
  -5  -2   1   17.90   11.00
  -5   2  -1   18.50   12.20
   5  -2  -1   22.70   12.50
  -5   3   1  619.44   56.29
  -5  -3  -1  602.14   56.89
   5  -3   1  602.94   48.50
  -5  -3  -1  585.14   48.80
  -5  -3  -1  590.64   56.59
   5  -3   1  528.15   55.89
   5  -3  -1  633.94   49.50
  -5  -3   1  566.74   48.10
   5  -3  -1  589.84   56.89
  -5  -3   1  504.75   56.19
  -5   3  -1  568.34   54.89
   5   3   1  658.73   50.39
  -5  -3   1  623.24   55.49
   5  -4   1   67.89   32.30
  -5  -4  -1    9.20   25.80
  -5  -4  -1   40.80   24.50
  -5  -4  -1   58.99   24.50
  -5   4   1    8.70   26.50
   5   4  -1   18.90   20.00
   5  -4   1   21.60   20.50
  -5  -4   1   60.59   28.50
  -5   4  -1  -10.90   20.80
  -5  -4   1   22.00   23.80
  -5  -4   1   42.90   22.60
   5   4   1   19.90   20.70
   5  -4  -1   22.30   22.20
   5  -4  -1   32.30   30.70
  -5   0  -2   -1.00    6.00
   5   0  -2    0.40    6.00
   5   0   2   -5.20    5.90
  -5   0   2   -2.50    6.10
  -5   0   2   -1.10    6.70
   5   0   2    0.60    5.90
  -5   1   2  692.03   57.89
   5   1  -2  757.22   57.99
  -5  -1  -2  723.23   54.59
   5  -1   2  749.62   56.79
   5   1  -2  766.22   54.89
  -5  -1  -2  740.23   57.99
   5  -1   2  751.22   54.29
  -5   1  -2  696.93   57.99
   5   1   2  681.23   54.79
   5   1   2  738.13   57.79
  -5  -1   2  758.62   58.19
   5  -1  -2  853.11   64.69
  -5  -1   2  775.82   54.89
   5  -2   2  522.15   41.60
  -5  -2  -2  499.55   41.50
   5  -2   2  553.94   46.60
  -5   2   2  500.75   46.90
   5   2  -2  509.45   41.20
  -5  -2  -2  530.95   46.20
  -5  -2  -2  531.15   46.70
   5   2  -2  576.64   46.20
   5  -2  -2  553.14   42.70
  -5  -2   2  522.95   46.10
  -5  -2   2  465.25   41.00
  -5   2  -2  607.94   40.00
   5  -2  -2  548.15   47.60
   5   2   2  455.65   41.50
  -5  -3  -2   21.80   18.80
  -5  -3  -2   60.99   21.50
   5  -3   2   42.10   15.70
  -5  -3  -2   49.90   19.10
   5  -3   2   27.90   21.50
  -5  -3  -2   23.20    9.00
  -5   3   2   19.00   16.30
  -5  -3   2   44.50   16.20
  -5  -3   2   35.30   19.40
   5  -3  -2   38.70   16.80
   5   3   2   55.59   17.70
  -5   3  -2    4.40   23.70
   5  -3  -2   38.90   21.00
  -5  -3   2   40.80   18.30
  -5   4   2  298.47   48.80
  -5  -4  -2  187.88   38.60
  -5  -4  -2  276.07   36.20
   5  -4   2  265.87   44.20
  -5  -4  -2  179.88   35.30
   5  -4   2  268.87   34.80
   5   4  -2  286.47   32.90
  -5  -4   2  309.17   35.20
  -5  -4   2  219.58   40.50
   5   4   2  272.87   34.90
  -5  -4   2  279.07   46.50
   5  -4  -2  238.28   35.70
  -5   4  -2  255.57   44.80
   5  -4  -2  315.07   50.39
  -5   0   3   -3.00    6.50
   5   0   3   -1.90    6.30
   5   0  -3    0.80    6.20
  -5   0  -3    2.40    6.50
  -5   0   3    2.10    6.70
   5   0   3    0.70    6.00
  -5   0  -3   -2.00    5.90
   5   0  -3   -8.20    5.20
   5   1  -3 2446.36  167.08
  -5  -1  -3 2363.16  163.58
   5   1  -3 2397.16  163.68
  -5   1   3 2155.98  166.78
  -5  -1  -3 2269.17  166.68
   5  -1   3 2111.39  165.08
  -5   1  -3 2444.76  165.68
   5   1   3 2107.49  166.48
   5  -1  -3 2486.35  167.38
  -5  -1   3 2227.78  163.68
  -5  -1   3 2245.08  166.68
  -5  -2  -3   -0.50   11.00
  -5  -2  -3   12.80   11.30
   5   2  -3    6.80   10.30
   5  -2   3   10.60   10.10
   5   2  -3   21.10   12.00
  -5   2   3   11.20   13.80
   5  -2   3   22.10   12.60
  -5  -2  -3    3.20   12.80
  -5  -2   3   17.60   11.70
  -5   2  -3   25.50   12.10
   5  -2  -3   17.00   13.10
  -5  -2   3   19.60   11.00
   5  -2  -3   11.00   15.20
   5   2   3   18.00   12.20
  -5   2  -3   -1.20    6.40
   5   3  -3  525.75   39.70
  -5  -3  -3  452.15   34.20
  -5   3   3  365.16   45.90
  -5  -3  -3  492.95   47.10
  -5  -3  -3  510.55   48.50
   5  -3   3  337.67   46.30
  -5  -3  -3  476.45   41.60
   5  -3   3  402.16   37.20
   5  -3  -3  431.16   47.90
  -5  -3   3  385.76   45.80
   5   3   3  396.46   38.40
  -5  -3   3  367.26   37.70
  -5   3  -3  410.56   44.30
  -5  -3   3  340.67   43.90
   5  -3  -3  443.46   39.70
  -5  -4  -3   12.40   23.00
   5  -4   3    4.80   29.60
  -5  -4  -3   69.19   39.90
  -5  -4  -3   74.09   25.80
   5   4  -3   44.80   19.70
  -5   4   3   17.60   29.50
   5  -4   3   25.90   19.80
  -5   4  -3   17.80   25.90
  -5  -4   3   31.80   22.70
  -5  -4   3   12.70    6.30
   5  -4  -3   45.20   23.50
   5  -4  -3   35.40   31.00
  -5  -4   3   21.20   28.00
   5   4   3   51.09   23.30
   5   0   4   -8.10    5.40
   5   0  -4    1.80    6.90
  -5   0  -4    0.00    8.20
  -5   0   4   -2.70    6.40
  -5   0  -4    2.30    6.20
   5   0  -4   -0.70    7.20
   5   0   4    3.50    6.50
  -5   0   4    0.10    7.70
   5   1  -4  208.68   22.60
   5  -1   4  190.18   18.00
   5   1  -4  217.38   19.30
  -5  -1  -4  224.08   19.30
  -5  -1  -4  208.88   23.20
  -5   1   4  219.78   24.80
  -5  -1  -4  234.48   21.30
   5  -1   4  211.78   21.20
  -5  -1   4  229.78   25.20
  -5   1  -4  192.08   20.50
  -5   1  -4  189.78   21.60
   5  -1  -4  207.98   25.90
  -5  -1   4  218.38   20.10
   5   1   4  219.78   23.30
   5   1   4  239.98   21.50
   5   2  -4  251.07   31.30
   5   2  -4  270.67   23.00
  -5  -2  -4  275.77   24.50
   5  -2   4  213.38   22.50
   5  -2   4  194.68   28.30
  -5   2   4  227.28   31.60
  -5  -2  -4  267.77   24.30
  -5  -2  -4  221.88   28.90
  -5  -2  -4  270.37   30.30
  -5  -2   4  232.78   23.70
   5  -2  -4  236.58   31.90
  -5  -2   4  211.28   28.70
   5  -2  -4  255.87   26.00
  -5   2  -4  260.47   22.10
  -5   2  -4  272.77   27.80
   5   2   4  213.28   24.60
   5  -3   4   29.20   21.50
  -5  -3  -4   30.00   17.90
  -5  -3  -4   49.20   20.50
   5  -3   4   42.80   15.00
  -5   3   4   17.60   21.90
  -5  -3  -4   19.90    9.60
  -5  -3  -4   14.20   17.90
   5   3  -4   33.80   14.40
  -5  -3   4   40.90   18.60
  -5  -3   4   41.50   20.50
  -5   3  -4   21.20   17.20
   5  -3  -4   35.20   22.30
  -5  -3   4   59.99   17.70
   5   3   4   57.19   19.30
   5  -3  -4   29.20   18.00
  -5   4   4  169.58   38.60
   5  -4   4  213.78   30.20
  -5  -4  -4  246.08   36.10
   5   4  -4  231.78   29.60
  -5  -4  -4  244.38   44.70
   5  -4   4  192.28   40.70
   5  -4  -4  131.99   41.70
  -5   4  -4  176.48   36.70
   5   4   4  267.87   34.00
  -5  -4   4  201.48   32.50
  -5  -4   4  201.28   39.30
   5  -4  -4  170.88   31.30
   5   0  -5   -3.30    8.70
  -5   0  -5   -3.00    6.50
   5   0  -5   -4.30    7.40
   5   0   5    1.00    6.30
  -5   0  -5    2.60    7.90
  -5   0   5    4.70   10.20
   5   0   5   12.50    6.80
  -5   0  -5    1.90    8.40
  -5  -1  -5 1551.74  111.69
   5   1  -5 1500.95  110.59
  -5  -1  -5 1380.56  110.69
   5  -1   5 1510.75  112.29
  -5   1   5 1614.84  115.29
   5   1  -5 1602.84  114.19
  -5  -1   5 1628.04  115.09
  -5  -1   5 1513.75  111.19
   5  -1  -5 1592.24  115.29
  -5   1  -5 1456.95  110.99
   5   1   5 1606.54  111.19
  -5   1  -5 1561.64  112.29
   5  -2   5   41.90   14.00
   5   2  -5   20.40   10.50
  -5   2   5   36.10   15.70
  -5  -2  -5   15.10    9.90
   5  -2   5   38.70   10.50
  -5  -2  -5   43.90   13.70
  -5  -2  -5   28.10   14.30
   5   2  -5   27.70   12.70
  -5  -2  -5   32.00   16.10
   5  -2  -5   30.90   14.80
  -5   2  -5    9.20    8.40
  -5  -2   5   32.00   12.30
   5  -2  -5   16.40   16.90
   5   2   5   45.00   14.30
  -5   2  -5   33.20   12.50
  -5  -2   5   29.50   14.20
  -5   3   5  171.98   42.20
  -5   3   5  185.28   19.40
   5  -3   5  215.78   36.00
   5   3  -5  172.48   22.90
  -5  -3  -5  119.29   26.40
  -5  -3  -5  195.48   28.90
   5  -3   5  177.08   22.00
  -5  -3  -5  210.98   32.20
  -5  -3  -5  136.09   21.40
   5  -3  -5  181.28   26.80
  -5  -3   5  177.78   32.00
  -5   3  -5  171.18   28.30
   5  -3  -5  119.89   26.10
  -5  -3   5  175.58   29.50
  -5  -3   5  196.18   25.90
   5   3   5  197.68   29.00
  -5   4   5   -4.20   22.80
   5  -4   5    4.70   17.60
   5   4  -5   25.70   18.00
  -5  -4  -5   34.80   26.40
  -5  -4  -5   37.30   26.40
   5  -4   5   86.79   34.10
   5  -4  -5   16.60   24.40
   5  -4  -5   43.20   31.00
  -5  -4   5   22.70   24.70
  -5  -4   5   -4.50   10.50
   5   4   5   13.60   24.30
   5   0   6    1.40    6.20
  -5   0  -6    2.70    9.50
  -5   0   6    7.30   10.10
  -5   0  -6    2.00    8.30
   5   0  -6   -0.30    7.80
   5   0  -6   -0.20    9.20
   5   0   6    3.00    6.90
  -5   0  -6   -2.20    6.50
  -5   1   6  281.37   34.40
   5   1  -6  389.66   28.60
  -5  -1  -6  377.76   33.70
   5   1  -6  412.16   33.00
  -5  -1  -6  343.87   30.50
  -5  -1  -6  396.26   31.70
   5  -1   6  331.77   30.30
  -5  -1  -6  351.46   32.90
  -5   1  -6  367.16   30.10
   5  -1  -6  407.16   36.40
  -5  -1   6  305.47   33.10
   5   1   6  321.17   29.00
  -5  -1   6  297.97   29.30
  -5   1  -6  379.46   29.70
  -5  -2  -6  265.57   26.40
   5  -2   6  301.97   28.80
  -5  -2  -6  252.97   31.50
   5   2  -6  267.37   24.20
   5  -2   6  262.17   22.90
  -5   2   6  231.88   39.90
   5   2  -6  257.17   28.90
  -5  -2  -6  278.57   27.30
   5   2   6  267.97   27.50
   5  -2  -6  242.48   27.30
  -5  -2   6  262.47   32.60
  -5  -2   6  285.37   26.50
   5  -2  -6  248.38   35.20
  -5   2  -6  264.57   25.70
   5   3  -6   60.69   14.60
   5  -3   6   33.80   20.90
  -5  -3  -6   79.89   23.10
  -5  -3  -6   65.39   22.20
  -5  -3  -6   18.70   20.10
   5  -3   6   45.90   13.30
  -5   3   6   42.50   20.20
  -5   3   6   19.00   10.80
  -5   3  -6   48.00   18.00
  -5  -3   6   50.99   23.40
  -5  -3   6   54.79   17.90
   5  -3  -6   30.40   19.80
   5   3   6   19.60   22.80
   5  -3  -6   49.90   19.40
   5   4  -6  265.57   33.90
   5  -4   6  433.36   59.39
  -5  -4  -6  309.67   43.40
   5  -4   6  286.37   34.30
  -5   4   6  429.46   60.49
  -5  -4  -6  313.97   54.49
   5  -4  -6  340.27   51.09
   5   4   6  338.47   40.50
  -5  -4   6  390.56   32.20
  -5  -4   6  289.27   47.60
   5  -4  -6  319.87   42.40
  -5   0  -7   -2.70    9.40
  -5   0  -7    6.30    9.40
  -5   0   7    7.10   12.00
   5   0   7    1.90    6.40
   5   0  -7    5.50    9.90
   5   0  -7   -0.70    8.10
  -5   0  -7   -4.10    6.90
  -5  -1  -7 1350.06  100.89
  -5  -1  -7 1329.97   98.49
  -5  -1  -7 1361.26  103.29
   5   1  -7 1440.26   96.69
  -5   1  -7 1336.67   98.09
   5   1   7 1334.07   97.09
   5  -1  -7 1427.26  102.89
  -5  -1   7 1147.79   96.79
  -5  -2  -7   10.80   11.30
   5  -2   7    3.90   10.80
  -5  -2  -7   19.50   14.00
   5  -2   7    3.90    7.30
  -5  -2  -7    7.70   13.90
   5  -2   7    4.10    8.50
  -5  -2  -7    7.60   15.20
  -5   2   7  -10.60   15.90
   5   2  -7   -0.70    9.50
  -5  -2   7    6.30   15.70
  -5  -2   7    3.20   13.00
   5  -2  -7    1.30   14.70
   5   2   7   13.10   14.60
  -5   2  -7    5.80   10.30
   5  -2  -7   -6.10   16.50
   5  -3   7  192.98   20.50
  -5  -3  -7  116.39   31.60
  -5   3   7  124.29   28.40
   5  -3   7  152.38   27.60
  -5   3   7  190.48   23.00
   5   3  -7  188.88   21.70
  -5  -3  -7  208.08   31.90
  -5  -3  -7  232.88   31.50
   5  -3  -7  169.18   26.20
  -5  -3   7  179.68   30.50
   5  -3  -7  112.49   28.90
  -5  -3   7  151.98   27.70
  -5  -3   7  210.78   26.90
  -5   4   7  119.29   55.29
   5  -4   7   -8.40   32.10
   5  -4   7   -7.50   19.80
  -5  -4  -7   -7.90   29.60
  -5  -4  -7    2.70   28.90
  -5  -4  -7  -55.39   30.00
   5   4  -7   12.40   17.60
   5   4   7   23.20   25.90
   5  -4  -7   36.20   42.00
  -5  -4   7  -46.20   26.90
  -5  -4   7   11.70   30.60
   5  -4  -7   39.10   31.30
  -5  -4   7  -15.00   14.50
  -5   0  -8    4.70   10.50
   5   0  -8   -2.00    8.90
   5   0   8    6.30    6.70
  -5   0  -8   -8.90   13.80
  -5   0  -8    5.20    9.70
   5   0  -8    6.60   10.80
  -5   0   8   11.20   11.30
   5  -1   8  280.97   21.60
  -5  -1  -8  264.77   30.00
  -5  -1  -8  302.77   30.80
   5   1  -8  328.97   29.00
  -5   1   8  314.87   32.60
  -5  -1  -8  278.37   30.70
   5   1  -8  289.77   24.20
  -5  -1  -8  255.97   25.40
  -5   1  -8  276.67   29.10
  -5  -1   8  307.07   29.90
   5   1   8  289.47   25.70
   5  -1  -8  243.88   26.40
   5  -1  -8  315.77   35.10
  -5  -1   8  272.57   25.20
   5  -2   8   54.99    8.90
  -5  -2  -8   62.19   20.90
  -5   2   8   72.09   23.30
  -5  -2  -8   66.99   17.60
   5   2  -8   87.39   12.00
  -5  -2  -8   63.69   14.40
  -5  -2  -8  102.39   17.60
   5  -2   8   60.99   10.30
   5   2   8   62.79   17.90
   5  -2  -8   91.49   18.20
   5  -2  -8   64.29   22.30
  -5  -2   8   48.90   17.60
  -5  -2   8   73.79   15.90
  -5  -3  -8   78.89   21.60
  -5  -3  -8   68.89   24.70
   5   3  -8   63.59   13.60
  -5   3   8   61.49   29.00
  -5   3   8   34.20   13.80
   5  -3   8   54.99   12.80
  -5  -3   8   52.59   23.40
  -5  -3   8   64.19   21.00
   5  -3  -8   54.59   29.90
  -5  -3   8   30.30   23.90
   5  -3  -8   60.09   21.90
  -5  -4  -8  127.89   34.10
  -5  -4  -8  170.38   47.90
   5  -4   8  126.69   22.70
   5   4  -8  106.29   21.20
  -5   4   8   54.69   33.90
   5  -4   8   86.89   34.50
  -5  -4   8  110.19   19.70
  -5  -4   8   99.59   29.30
   5  -4  -8  111.99   36.10
   5   4   8  127.79   29.80
  -5  -4   8   92.89   35.40
   5   0  -9   -3.60    9.00
  -5   0  -9   -6.00   11.30
  -5   0   9    9.60   12.50
   5   0  -9   -6.90   10.20
  -5   0  -9   -1.50   10.20
  -5   0  -9   -6.20    7.30
  -5   0  -9    4.40    8.50
   5   0   9   -2.70    6.80
  -5  -1  -9 1179.78  100.39
  -5  -1  -9 1285.87   99.19
   5   1  -9 1419.16   95.89
  -5  -1  -9 1493.95  104.19
  -5  -1  -9 1158.08   96.29
  -5   1   9 1260.77  102.29
   5   1  -9 1520.15  100.09
  -5  -1   9 1366.86  100.29
   5   1   9 1342.87   96.79
   5  -1  -9 1224.48   96.89
   5  -1  -9 1401.56  103.49
  -5  -2  -9   30.90   15.70
  -5  -2  -9   12.50   17.70
   5  -2   9   14.20    5.50
  -5   2   9   26.30   20.00
   5   2  -9   26.90    9.40
  -5  -2   9   -2.20   13.60
   5  -2  -9    0.80   21.40
  -5  -2   9    7.60   15.10
   5  -2  -9   14.40   16.00
   5   2   9   11.30   16.50
   5  -3   9  187.98   23.10
  -5   3   9  193.48   51.39
  -5  -3  -9  152.48   30.80
  -5  -3  -9  142.59   34.70
  -5  -3  -9  198.08   31.20
  -5   3   9  171.68   27.60
   5  -3   9  228.98   22.10
   5   3  -9  169.68   20.80
  -5  -3   9  213.48   28.50
   5  -3  -9  208.98   31.40
   5  -3  -9  100.29   34.60
   5   3   9  341.87   49.99
  -5  -3   9  265.27   37.90
  -5   0  10   -9.20   13.70
   5   0 -10    0.70   11.40
   5   0  10    5.70    7.10
  -5   0 -10   -4.20    7.10
   5   0 -10   -0.80   10.00
   5   1 -10   37.80   11.80
  -5  -1 -10   46.90   12.80
  -5  -1 -10   35.10   14.30
   5   1 -10   52.79   10.00
  -5   1  10   25.60   18.30
  -5  -1 -10   27.10   14.20
   5  -1 -10   31.80   14.70
   5  -1 -10   20.40   12.60
  -5  -1  10   39.90   15.30
   5  -1 -10   30.50   18.30
   5   1  10   60.09   13.80
  -5   2  10  102.79   24.00
  -5  -2 -10   98.69   21.00
   5   2 -10   93.29   13.00
  -5   2  10   70.39   29.80
  -5  -2 -10   46.60   23.00
  -5  -2 -10  119.69   20.10
  -5  -2  10  118.69   16.50
   5  -2 -10   98.89   28.20
   5  -2 -10   99.49   20.10
   5   2  10  163.58   22.20
  -5  -2  10   75.99   18.60
  -5  -3 -10   18.50   32.20
  -5  -3 -10   -7.80   23.00
   5   3 -10    7.30   10.00
   5  -3  10   -5.20   11.60
  -5   3  10   35.90   29.60
  -5   3  10   -7.60   24.00
  -5  -3 -10  -21.50   35.20
   5  -3 -10    8.90   21.40
   5   3  10   25.50   26.80
  -5  -3  10   22.40   22.20
   5  -3 -10   22.70   28.70
  -5  -3  10   18.50   19.70
  -5  -3  10  -15.60   18.00
  -5   0  11  -20.80   13.30
   5   0 -11    8.30   12.60
  -5   0 -11   -7.60    6.50
   5   0 -11  -10.70    9.20
   5   0  11    6.50    7.30
   5   0 -11    6.10   10.50
  -5  -1 -11  356.76   36.20
  -5  -1 -11  316.47   36.40
  -5   1  11  388.16   42.10
  -5  -1 -11  315.27   30.20
   5   1 -11  370.96   27.50
   5  -1 -11  318.17   40.00
  -5  -1  11  335.27   34.40
   5  -1 -11  341.57   32.20
   5   1  11  371.56   30.80
   5  -1 -11  306.17   30.60
  -5  -2 -11   25.50   17.30
  -5   2  11   -9.00   21.40
  -5  -2 -11    9.90   17.40
  -5  -2 -11   10.10   19.40
  -5   2  11   -3.10   16.20
   5   2 -11   -1.60    6.90
   5  -2 -11  -27.20   21.20
   5  -2 -11    6.30   16.40
  -5  -2  11    3.50   15.10
  -5  -2  11   16.40   15.50
   5   2  11   25.20   18.20
  -5  -3 -11   87.79   26.70
  -5   3  11   68.49   20.30
   5   3 -11   97.99   13.60
  -5  -3 -11   56.89   27.00
   5  -3 -11   91.09   25.60
   5   3  11  138.29   28.50
  -5  -3  11   56.69   22.50
   5   0 -12   -7.50    9.30
  -5   0  12    6.00   16.40
   5   0 -12    7.50   14.50
   5   0 -12   -0.60   10.60
  -5  -1 -12   36.50   12.90
  -5   1  12  -11.10   16.90
  -5   1  12   13.80   20.80
  -5  -1 -12    1.00   14.00
  -5  -1 -12   14.50   14.80
   5   1 -12   29.50    8.10
   5  -1 -12   23.40   19.10
   5  -1 -12   22.70   15.30
   5  -1 -12   36.90   13.40
   5   1  12   35.20   13.40
  -5  -2 -12   35.90   19.10
  -5  -2 -12   21.80   24.50
   5   2 -12   55.09    6.60
  -5   2  12   33.30   19.40
   5  -2 -12   61.39   19.70
   5   2  12   86.39   20.60
  -5  -2  12   30.50   19.90
  -5   3  12   -2.90   19.00
  -5  -3 -12    6.00   24.70
   5  -3 -12   26.50   23.10
  -5  -3  12  -15.20   22.30
   5   3  12   47.30   26.10
   5   0 -13    0.70   12.00
  -5   0  13   10.30   17.00
   5   0 -13    0.70   13.60
  -5   0  13   -6.20   18.30
  -5  -1 -13  232.98   25.20
  -5  -1 -13  261.57   31.60
  -5  -1 -13  192.68   36.30
   5   1 -13  264.17   19.10
   5  -1 -13  246.28   27.10
   5  -1 -13  252.57   28.60
  -5  -2 -13  -35.30   18.80
  -5   2  13    9.30   20.00
  -5  -2 -13    3.30   18.80
   5  -2 -13  -21.00   16.70
  -5  -2  13    2.10   21.60
   5   0 -14   -4.40   12.20
  -5   0  14  -13.40   19.50
   5   0 -14   -1.00    8.70
  -5  -1 -14   20.20   16.90
  -5   1  14   12.90   21.30
   5  -1 -14   40.30   17.50
  -5  -1  14   32.80   21.80
  -5  -2 -14   18.50   22.50
  -5   2  14   63.79   29.20
  -5  -2 -14   36.50   18.70
   5  -2 -14   65.29   20.00
   5   0 -15  -13.50   10.70
  -5   0  15  -12.60   21.60
   5   0 -15   -2.80    8.40
  -5  -1 -15   44.50   10.10
  -5   1  15  116.19   25.10
  -5  -1 -15   67.79   18.20
   5   0 -16   -8.60    9.90
  -6   0   0 8853.91  632.74
   6   0   0 8983.50  632.64
  -6   1   0   43.10   12.20
   6  -1   0   42.30   11.30
   6   1   0   34.20   10.10
   6   1   0   45.10   10.30
  -6  -1   0   31.70   10.30
  -6  -1   0   41.50    9.90
  -6  -2   0 2171.98  156.78
   6  -2   0 2198.18  156.28
   6   2   0 2123.39  156.68
  -6   2   0 2175.48  156.28
  -6  -2   0 2036.70  151.68
   6   2   0 1978.80  151.68
  -6   3   0   82.29   30.00
  -6  -3   0   63.29   19.20
   6  -3   0   58.29   21.80
  -6  -3   0   45.20   18.30
   6  -3   0   87.89   19.20
  -6   3   0   39.60    6.50
   6  -4   0  126.99   36.00
  -6  -4   0  128.49   27.90
  -6  -4   0   89.59   33.50
  -6   4   0  124.69   30.30
   6   4   0  132.69   25.20
  -6  -4   0  131.69   31.40
   6  -4   0  111.79   25.90
  -6   0  -1 1872.51  137.59
   6   0   1 1856.41  137.69
  -6   0   1 1813.02  137.89
   6   0  -1 1976.30  134.99
   6   0  -1 1920.21  137.99
  -6   0   1 1889.71  134.99
   6   0   1 1855.21  134.69
   6  -1   1  140.79   14.30
  -6  -1  -1  130.79   14.90
   6   1  -1  101.79   17.70
   6   1  -1  125.29   15.00
  -6  -1  -1  112.89   18.70
   6  -1   1  121.39   17.70
  -6  -1   1  145.99   15.30
   6   1   1  142.49   21.80
   6  -1  -1  124.19   19.70
  -6  -1   1  137.89   19.60
  -6   1  -1  117.49   19.30
   6   1   1  137.89   15.50
   6  -1  -1  137.19   14.50
  -6  -2  -1  237.58   24.70
   6   2  -1  238.08   28.30
  -6  -2  -1  246.58   29.80
  -6   2   1  275.67   31.00
   6  -2   1  275.67   31.00
   6   2  -1  218.18   24.00
  -6   2  -1  235.48   29.20
   6   2   1  242.88   24.30
   6  -2  -1  256.97   36.50
  -6  -2   1  255.47   29.80
  -6  -2   1  254.17   24.10
  -6  -3  -1  232.18   35.50
  -6  -3  -1  225.98   35.60
  -6   3   1  235.78   36.30
   6  -3   1  186.78   26.50
  -6  -3  -1  237.28   28.00
   6   3  -1  234.78   26.20
   6  -3   1  157.48   30.60
   6  -3  -1  203.58   28.30
   6   3   1  320.47   39.30
  -6   3  -1  191.78   17.90
  -6  -3   1  225.68   39.20
  -6  -3   1  230.88   27.30
  -6   3  -1  211.48   34.60
  -6  -3   1  231.38   35.60
   6  -3  -1  217.98   37.50
   6   4  -1   43.10   20.90
  -6  -4  -1   54.89   24.30
  -6  -4  -1   42.60   33.40
  -6  -4  -1   21.20   28.20
   6  -4   1   25.30   21.50
  -6   4   1   90.99   33.50
   6  -4   1   23.90   32.10
   6   4   1   46.30   22.50
  -6   4  -1   44.20   25.70
  -6  -4   1   48.60   23.90
  -6  -4   1   28.00   28.60
   6  -4  -1   39.20   22.80
  -6  -4   1   29.40   29.80
   6  -4  -1   17.90   28.50
   6   0  -2 1528.35  129.89
   6   0  -2 1497.85  132.49
   6   0   2 2006.80  130.29
  -6   0   2 1911.11  133.79
  -6   0   2 1972.70  130.59
   6   0   2 2002.50  133.49
   6   1  -2   35.90   10.80
  -6   1   2   64.59   13.90
  -6  -1  -2   47.90   10.40
   6  -1   2   83.69   10.90
   6   1  -2   48.20   10.60
  -6  -1  -2   37.30   11.40
   6  -1   2   43.00   10.30
  -6  -1   2   53.69   12.80
  -6  -1   2   64.19   11.10
   6   1   2   65.49   11.50
   6  -1  -2   45.30   12.20
   6   1   2   58.89   12.00
   6   2  -2  815.82   67.39
  -6  -2  -2  785.52   67.59
   6   2  -2  823.82   71.79
  -6  -2  -2  890.61   73.09
  -6   2   2 1026.00   73.89
   6  -2   2  961.80   72.49
  -6  -2   2 1017.10   73.39
   6   2   2  963.60   67.99
   6  -2  -2  824.62   72.99
  -6  -2   2  958.10   67.79
  -6  -3  -2   57.39   18.50
  -6   3   2   23.00   20.40
   6  -3   2   21.20   22.30
  -6  -3  -2    0.60   21.60
   6  -3   2   10.30   15.70
   6   3  -2   52.79   16.40
  -6  -3  -2   15.40   23.00
  -6   3  -2    1.70   18.50
   6  -3  -2   30.50   18.20
  -6  -3   2    1.60   20.40
   6  -3  -2    4.60   20.10
  -6  -3   2    6.50   18.00
  -6  -3   2   46.10   16.80
   6  -4   2   12.30   32.80
  -6  -4  -2   39.70   30.40
   6   4  -2   49.90   21.90
  -6  -4  -2  101.09   27.00
   6  -4   2   70.79   22.60
  -6   4   2   49.80   26.50
  -6  -4  -2   31.70   28.70
   6  -4  -2   12.90   29.80
   6   4   2   62.39   23.60
  -6  -4   2   88.49   25.10
   6  -4  -2   60.69   24.60
  -6  -4   2   69.59   29.70
  -6  -4   2   73.19   36.10
  -6   4  -2   32.50   31.50
   6   0  -3  653.33   52.09
   6   0   3  743.03   52.29
  -6   0   3  758.52   56.59
  -6   0   3  694.93   52.39
   6   0  -3  639.74   55.39
   6   0   3  737.03   55.39
   6   1  -3  405.76   30.50
  -6  -1  -3  390.96   30.30
  -6  -1  -3  359.26   34.30
   6  -1   3  348.77   32.70
   6   1  -3  396.26   34.50
  -6   1   3  340.57   35.00
   6  -1  -3  372.06   35.60
  -6  -1   3  402.56   35.50
   6   1   3  348.57   33.70
  -6  -1   3  407.36   30.90
  -6   1  -3  373.56   33.60
   6   1   3  363.96   30.60
  -6   2   3  464.55   43.30
  -6  -2  -3  448.56   42.50
   6   2  -3  405.86   35.80
   6   2  -3  437.86   40.90
  -6  -2  -3  411.86   36.50
   6  -2   3  472.55   41.90
  -6   2  -3  473.95   40.90
   6  -2  -3  407.06   37.90
   6  -2  -3  389.66   43.40
  -6  -2   3  448.46   36.50
  -6   2  -3  458.75   35.00
   6   2   3  449.76   37.00
  -6  -3  -3  303.87   41.00
  -6  -3  -3  320.07   41.40
   6  -3   3  342.07   31.90
  -6  -3  -3  340.37   33.60
   6  -3   3  255.97   42.00
  -6  -3  -3  332.77   29.10
   6   3  -3  331.77   31.20
  -6   3   3  384.76   44.40
  -6  -3   3  330.47   32.10
  -6   3  -3  293.07   38.50
  -6  -3   3  293.17   39.80
   6  -3  -3  312.57   34.40
  -6  -3   3  315.77   42.50
   6  -3  -3  255.47   42.10
  -6  -4  -3   50.29   26.10
  -6   4   3    4.70   22.10
   6   4  -3   26.30   20.50
   6  -4   3   18.30   20.20
  -6  -4  -3    2.00   26.00
  -6  -4  -3   -7.60   31.70
   6  -4   3   60.59   32.30
  -6   4  -3    8.90   24.80
  -6  -4   3  -21.80   27.70
   6   4   3   53.59   23.60
   6  -4  -3   34.50   24.30
  -6  -4   3   53.79   24.80
   6  -4  -3  -10.40   29.20
  -6   0  -4 1882.41  137.79
  -6   0   4 1785.92  141.49
   6   0   4 1858.81  140.59
  -6   0   4 1804.52  138.19
   6   0  -4 2137.69  142.09
   6   0   4 1679.93  137.59
   6   0  -4 2238.28  138.59
  -6   0  -4 2068.09  141.09
  -6   1   4   69.59   14.40
   6  -1   4   67.69   11.00
   6   1  -4   97.69   17.00
  -6  -1  -4   87.99   14.90
   6   1  -4   83.69   13.10
  -6  -1  -4   95.69   14.10
   6  -1  -4   82.29   16.70
  -6  -1   4   79.49   13.10
  -6   1  -4  105.69   14.50
   6   1   4   74.39   14.10
   6   1   4   94.69   13.20
  -6   1  -4   75.79   12.00
  -6  -1   4   57.79   14.80
  -6  -2  -4 1140.99   84.69
  -6  -2  -4 1048.50   78.59
   6  -2   4  938.61   81.29
  -6  -2  -4 1117.29   84.29
   6   2  -4 1235.78   86.29
   6   2  -4 1079.29   77.89
  -6   2   4  993.30   84.09
   6  -2  -4 1105.59   79.69
   6  -2  -4 1085.99   84.99
  -6   2  -4 1116.59   81.79
  -6   2  -4 1178.68   77.49
   6   2   4  936.11   78.49
  -6  -2   4  897.31   77.99
  -6  -2   4  932.81   82.59
   6   3  -4   59.59   16.50
  -6  -3  -4   24.30   18.00
  -6  -3  -4   44.30   11.70
  -6  -3  -4   67.39   20.10
   6  -3   4   42.10   22.60
   6  -3   4   70.29   16.20
  -6   3   4   47.40   22.90
  -6  -3  -4   39.50   19.20
  -6   3  -4   52.39   19.00
   6  -3  -4   40.40   26.20
  -6  -3   4   63.69   21.20
   6  -3  -4   43.60   19.70
  -6  -3   4   39.90   19.90
  -6  -3   4   64.19   19.00
   6   4  -4   50.69   21.00
  -6  -4  -4    0.20   27.20
   6  -4   4   58.19   34.20
  -6  -4  -4  105.39   28.20
  -6  -4  -4    6.00   28.80
   6  -4   4   62.09   21.60
  -6   4   4   88.39   30.30
   6  -4  -4   93.39   26.40
   6  -4  -4   30.60   32.10
  -6   4  -4   36.60   28.90
   6   4   4   60.89   24.90
  -6  -4   4   45.20   30.80
   6   0   5 1140.59   84.89
  -6   0  -5 1159.18   88.09
   6   0   5 1258.57   88.19
   6   0  -5 1068.69   85.29
  -6   0  -5 1208.28   86.39
  -6   0   5 1242.38   90.09
   6   0  -5 1163.58   88.99
  -6  -1  -5  121.79   14.70
  -6   1   5   62.79   15.10
  -6  -1  -5   95.59   13.90
   6   1  -5   93.99   13.80
  -6  -1  -5   56.09   13.90
   6  -1   5   80.19   11.50
   6   1  -5  101.69   18.00
   6   1   5   91.29   15.10
  -6   1  -5   99.89   13.00
  -6  -1   5   84.19   13.80
   6  -1  -5  103.19   18.10
  -6  -1   5   62.59   15.00
   6   1   5  100.09   17.00
   6  -2   5  275.37   30.90
   6  -2   5  267.47   25.70
  -6   2   5  271.47   35.80
   6   2  -5  342.57   32.20
  -6  -2  -5  305.17   28.50
  -6  -2  -5  317.07   29.10
   6  -2   5  268.27   25.40
   6   2  -5  271.37   26.10
  -6  -2  -5  312.07   34.80
  -6  -2  -5  309.87   34.50
  -6   2  -5  314.87   32.30
   6  -2  -5  325.17   37.00
  -6  -2   5  255.87   27.30
   6   2   5  237.98   27.90
   6  -2  -5  268.97   29.40
  -6   2  -5  284.37   26.40
  -6  -2   5  271.77   34.10
  -6  -3  -5  220.58   38.00
  -6  -3  -5  230.78   38.60
  -6  -3  -5  224.48   29.20
  -6  -3  -5  203.28   25.40
   6  -3   5  270.97   26.20
   6  -3   5  256.87   37.30
  -6   3   5  220.18   40.10
   6   3  -5  218.38   26.50
  -6  -3   5  257.87   37.20
  -6  -3   5  303.77   38.90
   6  -3  -5  177.38   34.50
  -6  -3   5  268.87   29.60
   6  -3  -5  230.08   31.20
  -6   3  -5  190.58   34.70
  -6  -4  -5   12.60   32.70
  -6  -4  -5    0.30   26.90
   6  -4   5  -42.80   30.60
   6  -4   5   34.10   19.40
  -6  -4  -5   66.39   28.70
  -6   4   5   88.49   38.90
   6   4  -5   29.80   20.10
   6  -4  -5   40.00   29.20
  -6  -4   5    3.70   29.40
  -6   4  -5   26.90   25.30
   6   4   5   38.20   25.20
   6  -4  -5   49.60   32.90
   6   0   6 2682.43  192.48
  -6   0  -6 2673.03  189.38
  -6   0   6 2936.81  191.28
   6   0  -6 2218.28  186.48
   6   0   6 2630.24  186.08
   6   0  -6 2630.04  190.48
  -6   0  -6 2581.54  187.48
   6   1  -6   14.60   10.40
  -6  -1  -6   31.40   10.90
  -6   1   6   36.60   13.70
  -6  -1  -6   15.30   13.60
   6  -1   6   31.00   10.60
   6  -1   6   28.10    8.50
   6   1  -6   35.00   10.40
  -6  -1  -6   25.90   11.60
  -6   1  -6   41.30   10.70
  -6  -1   6    3.80   11.90
  -6   1  -6   15.40   10.00
  -6  -1   6   21.70   11.90
   6  -1  -6   22.90   14.90
  -6  -2  -6  880.81   63.19
  -6  -2  -6  786.02   68.49
  -6  -2  -6  759.12   68.49
   6   2  -6  867.41   66.59
   6   2  -6  792.32   61.19
  -6   2   6  686.33   77.29
   6  -2   6  865.81   64.99
   6  -2   6  802.72   60.49
  -6  -2  -6  761.82   62.49
   6  -2   6  727.03   60.39
  -6  -2   6  848.82   62.49
   6   2   6  802.52   63.09
   6  -2  -6  777.32   63.49
  -6   2  -6  812.02   64.29
  -6  -2   6  967.80   69.99
   6  -2  -6  820.92   70.09
  -6   2  -6  885.91   62.19
  -6  -3  -6   28.00   21.80
   6  -3   6    1.80   13.30
   6   3  -6   26.30   14.50
   6  -3   6   36.30   21.00
  -6  -3  -6   16.50   20.10
  -6   3   6   24.40   18.60
  -6  -3  -6    2.20   11.90
  -6  -3  -6   48.90   22.80
  -6   3  -6    4.20   16.80
   6   3   6   20.80   34.60
  -6  -3   6   21.90   19.00
  -6  -3   6   29.70   26.00
   6  -3  -6    1.90   19.30
   6  -3  -6   -5.10   21.80
  -6  -3   6   12.90   21.70
  -6  -4  -6  165.68   32.80
  -6  -4  -6  149.79   40.10
   6  -4   6   65.29   33.60
  -6   4   6   35.10   28.30
   6  -4   6  106.39   23.90
   6   4  -6  101.69   33.20
  -6  -4   6  117.89   28.70
   6  -4  -6   59.29   35.00
   6   4   6  166.68   29.40
  -6  -4   6  115.39   45.30
  -6  -4   6   98.29   17.20
  -6   0  -7  933.51   68.79
  -6   0  -7  951.40   70.39
  -6   0   7  993.20   75.59
   6   0  -7  970.20   67.39
  -6   0  -7  802.72   66.19
   6   0   7  827.72   68.89
   6   0  -7 1002.80   71.99
   6   0   7  835.02   66.09
  -6  -1  -7   41.50   13.30
  -6  -1  -7   39.40   12.00
   6  -1   7   26.10   10.00
   6  -1   7   25.90    8.40
   6   1  -7   37.70   12.70
  -6  -1  -7   57.59   14.70
  -6  -1  -7   25.70   12.40
   6   1  -7   49.00   11.40
  -6   1   7   14.20   14.30
  -6  -1   7   28.30   12.10
  -6   1  -7   34.90   11.60
  -6  -1   7   16.10   12.40
   6  -1  -7   51.69   17.30
   6  -1  -7   52.99   13.10
   6   1   7   30.20   14.10
  -6   1  -7   45.30   10.30
  -6  -2  -7  176.18   23.20
   6  -2   7  143.49   17.50
   6   2  -7  147.09   19.00
  -6   2   7  137.69   25.40
  -6  -2  -7  190.48   30.10
   6   2  -7  190.88   24.50
   6  -2   7  164.88   24.30
  -6  -2  -7  131.89   18.90
   6  -2   7  151.38   16.70
   6  -2  -7  176.38   23.00
  -6  -2   7  162.38   22.90
  -6  -2   7  100.09   22.40
  -6   2  -7  177.38   22.20
   6   2   7  156.78   23.10
   6  -2  -7  151.78   29.30
  -6   2  -7  155.18   22.00
  -6  -3  -7  152.18   23.90
   6  -3   7  139.39   27.30
   6   3  -7  153.48   21.60
   6  -3   7  127.09   19.40
  -6  -3  -7  148.09   33.90
  -6  -3  -7  156.98   26.50
  -6  -3  -7  184.08   31.80
  -6   3   7  123.99   29.90
  -6   3   7  126.49   17.30
  -6  -3   7   65.69   26.50
  -6   3  -7  124.79   23.00
   6  -3  -7  148.89   25.80
  -6  -3   7  206.78   31.00
   6  -3  -7   73.99   29.20
  -6  -3   7  147.09   24.20
   6   3   7  201.58   31.80
  -6  -4  -7  -35.20   26.00
  -6  -4  -7   11.90   29.50
   6  -4   7   -0.10   20.10
   6  -4   7  -22.90   32.10
  -6  -4  -7   13.60   35.40
  -6   4   7  -30.60   48.00
   6  -4  -7   29.50   34.70
   6  -4  -7    9.70   32.90
   6   4   7   48.70   27.40
  -6  -4   7   15.60   25.90
  -6  -4   7   -2.10   30.70
  -6  -4   7   14.50   16.00
   6   0  -8 1365.66   93.39
  -6   0  -8 1076.99   87.59
   6   0  -8 1115.09   87.99
   6   0   8 1159.38   86.99
  -6   0   8 1300.87   93.29
  -6   0  -8 1214.78   90.29
  -6   0  -8 1258.07   90.89
  -6  -1  -8   17.80   11.80
   6  -1   8   40.80    8.10
   6   1  -8   22.80   11.20
  -6  -1  -8   16.10   12.70
  -6   1   8   19.30   15.30
  -6  -1  -8   47.60   20.80
   6   1  -8   45.50   10.90
  -6  -1  -8   20.50   13.00
   6  -1  -8   39.70   13.70
   6  -1  -8   34.10   16.10
  -6  -1   8   22.80   11.60
   6   1   8   45.30   13.00
  -6  -1   8   27.80   13.50
  -6   1  -8   14.30   12.30
   6   2  -8  478.95   42.20
  -6  -2  -8  478.75   41.10
  -6  -2  -8  438.96   46.10
  -6   2   8  451.35   49.60
   6  -2   8  377.06   35.10
  -6  -2  -8  475.35   39.60
  -6  -2  -8  421.66   46.90
   6  -2   8  425.36   34.30
   6   2  -8  494.35   36.60
   6   2   8  475.45   40.00
  -6  -2   8  483.75   40.00
   6  -2  -8  462.95   40.70
   6  -2  -8  409.86   49.10
  -6  -2   8  445.06   46.20
  -6   2  -8  457.25   38.30
   6  -3   8   11.30   11.80
  -6  -3  -8   10.30   21.70
  -6   3   8  -16.30   23.60
   6  -3   8  -19.50   31.60
  -6  -3  -8    4.10   23.00
   6  -3   8   19.40   14.80
   6   3  -8    8.80   13.70
  -6  -3  -8  -14.50   19.00
  -6   3   8   -1.10   13.80
   6   3   8   60.49   25.80
   6  -3  -8   -1.50   22.90
  -6  -3   8   34.50   20.40
  -6  -3   8   10.10   21.90
   6  -3  -8   35.00   20.40
   6  -4   8  -17.80   33.30
   6   4  -8   48.90   20.00
  -6  -4  -8   60.69   37.60
  -6   4   8   62.29   35.40
  -6  -4  -8  -18.50   37.80
   6  -4   8   47.30   29.20
   6  -4  -8   60.69   30.20
  -6  -4   8   42.70   28.50
   6   4   8  103.49   36.60
  -6  -4   8   57.59   18.60
   6   0  -9  147.89   19.00
   6   0   9  181.88   16.90
  -6   0  -9  165.88   22.40
   6   0  -9  166.48   25.10
  -6   0   9  201.98   27.20
  -6   0  -9  165.08   25.10
  -6   0  -9  161.58   20.80
  -6  -1  -9   24.10   13.60
  -6   1   9   22.90   15.70
  -6  -1  -9   34.50   15.10
   6  -1   9   33.60    6.60
  -6  -1  -9   30.40   15.20
   6   1  -9   34.10   13.30
  -6  -1  -9   32.40   14.80
   6   1  -9   54.39   11.60
   6   1   9   34.20   13.10
   6  -1  -9   42.80   14.90
  -6  -1   9   29.60   16.10
  -6   1  -9   23.00   13.30
   6  -1  -9   49.50   18.20
  -6   2   9  201.18   32.40
   6  -2   9  200.88   15.60
   6   2  -9  171.28   19.50
  -6  -2  -9  139.19   28.50
   6   2  -9  201.68   25.90
   6  -2   9  169.98   16.60
  -6  -2  -9  217.88   25.70
  -6  -2   9  104.89   28.70
   6  -2  -9  164.78   26.30
   6   2   9  215.38   26.70
   6  -2  -9  111.59   30.50
  -6  -3  -9  157.38   27.70
  -6   3   9  115.39   30.40
   6   3  -9  122.89   19.50
   6  -3   9  158.98   18.30
  -6   3   9  101.69   19.90
  -6  -3  -9   85.69   27.80
   6  -3   9  172.28   20.00
  -6  -3   9  145.19   28.60
  -6  -3   9  124.09   24.70
   6  -3  -9  141.69   26.70
   6   3   9  172.68   29.20
   6  -3  -9   60.09   51.59
  -6   0 -10  450.25   42.20
   6   0 -10  480.15   41.20
  -6   0  10  611.74   48.60
  -6   0 -10  516.45   43.80
   6   0 -10  520.75   47.00
   6   0  10  563.84   39.30
  -6   0 -10  500.85   45.80
   6   1 -10   54.19   11.50
  -6  -1 -10   19.70   13.10
  -6  -1 -10   29.10   13.70
  -6   1  10   26.60   19.10
  -6  -1 -10   25.80   15.30
   6   1 -10   25.50   12.10
  -6  -1 -10   28.90   15.20
   6  -1 -10   21.30   14.20
  -6  -1  10   13.40   16.10
   6   1  10   28.40   13.20
   6  -1 -10   42.70   18.90
   6   2 -10  165.88   18.60
  -6  -2 -10  183.68   25.40
  -6  -2 -10  192.78   32.90
   6  -2 -10  107.49   31.20
  -6  -2  10  187.38   31.40
  -6  -2  10  182.18   23.80
   6   2  10  242.18   28.30
   6  -2 -10  156.98   25.50
  -6   3  10    9.40   16.80
  -6  -3 -10   25.80   24.00
   6   3 -10    6.30   11.20
  -6  -3 -10  -40.10   39.10
  -6   3  10    1.70   31.10
  -6  -3  10   20.10   21.80
   6   3  10   31.40   24.70
  -6  -3  10    0.40   25.40
   6  -3 -10    9.90   22.30
   6  -3 -10   14.80   28.80
   6   0 -11   69.99   14.30
   6   0 -11   35.80   14.40
  -6   0  11   55.49   18.80
   6   0  11   79.79   11.50
  -6   0 -11   45.40    9.90
   6   1 -11   19.90   12.20
   6   1 -11   14.20   10.10
  -6  -1 -11   20.40   13.40
  -6  -1 -11   12.80   14.90
  -6  -1 -11   -2.50   13.40
   6   1  11   16.20   13.80
   6  -1 -11   21.20   15.50
   6  -1 -11    4.70   13.30
   6  -1 -11   -1.40   17.00
  -6  -2 -11    8.10   17.90
  -6   2  11    1.10   23.20
  -6   2  11    2.90   17.00
  -6  -2 -11  -16.10   19.80
  -6  -2 -11   15.90   18.10
   6   2 -11   20.90    9.10
   6  -2 -11   24.10   17.90
   6   2  11   52.99   20.20
   6  -2 -11   45.70   25.40
  -6  -2  11   20.70   19.00
  -6  -2  11   -9.30   14.20
  -6  -3 -11   69.59   26.10
   6   3 -11  121.89   15.90
  -6   3  11   87.69   21.80
  -6  -3 -11  131.99   28.30
  -6  -3  11   76.29   22.70
  -6  -3  11  104.79   24.40
   6  -3 -11  148.59   28.00
  -6  -3  11  126.19   27.00
  -6   0 -12  513.25   40.20
  -6   0  12  502.95   49.80
   6   0 -12  545.35   41.70
   6   0 -12  548.65   50.49
   6   1 -12   11.30   12.20
  -6  -1 -12    1.50   13.10
  -6   1  12   12.10   20.70
  -6  -1 -12    0.90   14.70
  -6  -1 -12  -22.60   13.70
   6   1 -12   -3.80    9.40
   6  -1 -12    2.40   18.40
   6   1  12   15.10   14.30
   6  -1 -12   -8.80   12.90
  -6  -1  12   17.60   16.00
   6  -1 -12   12.20   15.40
   6   2 -12  157.08   15.10
  -6  -2 -12  125.59   36.20
  -6   2  12   95.99   23.90
  -6  -2 -12  161.58   24.80
   6  -2 -12  168.68   24.40
   6   2  12  224.98   29.30
  -6   3  12    2.40   20.40
  -6  -3 -12   17.30   26.60
   6   3 -12   42.40    9.60
  -6  -3  12   25.90   22.50
   6   3  12   38.40   26.50
   6  -3 -12   39.80   24.60
   6   0 -13  214.48   21.50
   6   0 -13  189.58   30.00
   6   0 -13  226.48   23.80
   6   1 -13   -2.20    8.20
  -6   1  13  -18.50   18.60
  -6  -1 -13   -9.10   15.10
   6   1 -13    7.80    7.60
  -6  -1 -13   -2.50   13.60
   6   1  13    5.10   14.30
   6  -1 -13   10.90   13.80
   6  -1 -13    5.50   16.70
  -6  -2 -13   40.30   22.70
  -6   2  13   33.90   21.90
  -6  -2 -13   89.79   21.30
  -6  -2  13   39.40   22.80
   6   2  13  138.59   24.20
   6  -2 -13   95.89   21.40
   6   0 -14  221.28   22.60
  -6   0  14  134.39   27.50
   6   1 -14   -1.60    6.30
  -6   1  14  -16.60   22.20
  -6  -1 -14  -25.00   15.40
   6   1 -14   -0.20    7.80
   6  -1 -14    2.70   14.20
  -6  -1  14  -41.20   40.90
   6  -1 -14    4.00   16.90
  -6  -2 -14   29.40   26.40
   6  -2 -14   98.59   21.70
  -6  -2  14  128.39   27.20
   6  -2 -14   65.09   23.90
   6   0 -15   59.69   14.40
   6   0 -15   45.50   10.70
  -6   0  15   48.50   23.90
  -6  -1 -15  -16.60   17.70
  -6   1  15    8.00   23.30
   6  -1 -15   20.10   17.90
  -6  -1  15   27.90   23.00
   7   0   0   -0.70    8.30
   7   0   0    2.20    8.10
  -7   0   0   -2.20    9.30
  -7   0   0   -3.00    8.40
  -7   1   0 2005.60  160.78
  -7  -1   0 2198.88  161.18
   7   1   0 2233.08  161.88
  -7  -1   0 2225.68  157.38
   7  -1   0 2408.16  157.58
   7  -1   0 2120.39  160.58
   7   1   0 2184.28  157.58
  -7   2   0  232.28   29.90
  -7  -2   0  195.78   29.30
   7   2   0  218.58   28.40
   7  -2   0  183.48   30.30
  -7  -2   0  222.38   23.20
   7   2   0  214.58   23.60
   7   3   0  186.48   25.80
  -7   3   0  175.08   30.60
  -7  -3   0  210.48   36.60
   7  -3   0  206.78   27.20
  -7  -3   0  225.88   27.40
   7  -3   0  187.18   33.90
  -7  -3   0  135.99   25.60
   7  -4   0  117.59   27.60
  -7  -4   0  112.49   32.20
   7  -4   0   92.69   37.40
  -7  -4   0  133.19   35.30
  -7  -4   0  158.38   29.90
   7   4   0  170.48   27.30
  -7   4   0   65.39   34.60
   7   0  -1    1.50    8.10
   7   0  -1   -3.00    7.50
  -7   0  -1    3.90    8.50
  -7   0  -1   -3.50    8.30
  -7   0   1   -3.90    8.60
   7   0   1   -1.60    7.80
  -7   0   1    2.80    9.00
   7  -1   1  185.98   22.70
  -7  -1  -1  257.17   25.30
  -7   1   1  152.08   25.80
   7   1   1  157.78   24.30
   7   1   1  171.08   19.60
  -7   1  -1  258.77   26.30
   7  -1  -1  247.68   24.80
  -7  -1   1  191.48   25.00
  -7  -1   1  157.28   19.10
   7   2  -1  217.98   24.00
   7   2  -1  247.38   29.30
   7  -2   1  235.78   31.30
  -7  -2  -1  223.08   24.00
  -7   2   1  194.58   30.20
  -7  -2  -1  240.18   30.30
  -7  -2   1  201.78   24.00
   7   2   1  206.18   29.10
  -7   2  -1  237.38   30.10
   7   2   1  231.78   24.50
   7  -2  -1  340.37   48.00
  -7  -2   1  226.68   30.40
   7  -3   1   49.99   18.90
  -7   3   1   42.00   22.00
  -7  -3  -1   75.09   19.10
   7   3  -1   66.39   18.50
  -7  -3  -1   42.30   19.50
   7  -3   1   19.00   22.00
  -7  -3  -1   59.39   23.60
  -7  -3   1   28.50   18.10
  -7  -3   1   54.49   18.30
   7  -3  -1   49.20   21.80
  -7  -3   1   36.20   20.60
   7  -3  -1   44.40   19.70
   7   3   1   52.39   18.50
  -7   3  -1   55.29   22.20
  -7   3  -1   31.70    9.70
  -7  -4  -1  253.47   29.50
   7  -4   1  241.08   37.20
  -7   4   1  224.98   37.10
   7  -4   1  181.08   42.80
   7   4  -1  264.47   33.30
  -7  -4  -1  260.47   44.50
  -7  -4  -1  157.78   45.50
  -7  -4   1  251.57   45.80
  -7   4  -1  336.17   50.69
   7  -4  -1  201.28   41.80
  -7  -4   1  206.68   36.80
   7   4   1  304.57   35.40
  -7  -4   1  285.17   39.20
   7  -4  -1  332.97   42.30
  -7   0  -2    2.00    8.80
   7   0   2    1.40    8.70
  -7   0  -2   -2.40    8.40
   7   0   2    0.40    8.10
   7   0  -2    2.50    8.50
   7   0  -2   -0.20    7.50
  -7   0   2    1.00    8.90
  -7   0   2   -5.30    8.20
   7  -1   2 1327.17   98.49
   7  -1   2 1181.48   94.79
  -7  -1  -2 1309.37   95.39
  -7   1   2 1255.67   99.99
   7   1  -2 1353.86   95.59
   7   1  -2 1357.96   99.89
   7  -1  -2 1436.26   95.59
   7   1   2 1261.37   99.59
   7   1   2 1236.28   95.39
  -7  -1   2 1319.57   99.89
   7  -1  -2 1334.97   99.49
  -7  -1   2 1382.96   95.59
  -7  -2  -2  178.58   28.10
   7   2  -2  151.08   20.40
  -7  -2  -2  172.38   21.70
  -7   2   2  201.18   29.20
   7   2  -2  159.28   25.30
   7  -2   2  169.68   27.20
  -7  -2   2  176.08   20.80
   7   2   2  178.78   21.90
   7   2   2  168.48   26.20
   7  -2  -2  171.38   29.50
  -7  -2   2  171.98   27.70
  -7  -3  -2  198.08   34.00
  -7   3   2  197.78   32.50
   7  -3   2  183.78   26.10
  -7  -3  -2  183.48   26.40
   7   3  -2  180.98   25.70
  -7  -3  -2  137.29   36.70
   7  -3   2  100.89   27.70
   7  -3  -2  163.78   33.70
  -7  -3   2  237.78   27.50
   7   3   2  167.58   26.20
  -7   3  -2  142.79   29.90
  -7  -3   2  237.08   37.20
   7  -3  -2  192.78   27.90
  -7  -3   2  127.19   27.60
   7  -4   2   51.79   30.10
  -7  -4  -2   78.19   35.50
   7  -4   2   82.19   35.30
   7   4  -2   70.49   23.20
  -7   4   2   85.19   34.30
  -7  -4  -2   79.09   31.40
  -7  -4  -2  100.69   28.40
   7  -4  -2  111.59   37.20
   7  -4  -2   87.79   28.90
   7   4   2   94.79   24.90
  -7   4  -2   37.00   29.80
  -7  -4   2   11.50   35.80
  -7   0   3    1.60    8.80
  -7   0   3    5.20    9.50
   7   0   3    6.10    8.60
   7   0   3    2.50    8.80
  -7   0  -3   -3.20    8.50
   7   0  -3    3.20    8.50
   7   0  -3   -2.40    7.40
   7  -1   3  739.83   60.29
   7   1  -3  864.01   61.09
  -7   1   3  781.32   66.19
  -7  -1  -3  732.33   64.69
   7  -1   3  843.22   64.29
  -7  -1  -3  858.71   61.19
   7   1  -3  820.62   65.49
   7   1   3  771.12   64.99
  -7   1  -3  796.42   64.69
   7   1   3  805.82   61.29
   7  -1  -3  862.31   65.99
  -7  -1   3  870.61   66.39
  -7  -1   3  864.81   61.49
   7  -1  -3  847.82   61.29
   7   2  -3  419.56   40.80
   7   2  -3  344.67   31.60
   7  -2   3  347.57   36.60
  -7  -2  -3  330.77   38.20
  -7   2   3  368.86   39.20
  -7  -2  -3  326.47   32.10
  -7  -2   3  359.26   38.60
   7  -2  -3  338.97   39.50
  -7  -2   3  376.06   32.10
   7   2   3  355.26   32.30
  -7   2  -3  317.27   35.70
  -7  -3  -3  232.48   26.40
  -7  -3  -3  240.78   38.10
  -7  -3  -3  246.08   38.50
  -7   3   3  250.07   40.10
   7  -3   3  220.18   28.30
   7   3  -3  195.18   27.30
  -7  -3  -3  245.38   30.10
   7  -3  -3  219.98   30.90
  -7  -3   3  208.28   27.80
   7  -3  -3  225.68   40.40
   7   3   3  232.28   28.70
  -7   3  -3  226.98   35.30
  -7   3  -3  208.48   21.60
  -7  -3   3  196.38   36.10
  -7  -4  -3  168.28   35.70
  -7   4   3  211.68   44.10
   7   4  -3  226.28   28.90
   7  -4   3   90.79   34.90
  -7  -4  -3  151.28   36.60
  -7  -4  -3  221.08   33.00
   7  -4  -3  116.49   39.70
  -7  -4   3  140.89   39.00
  -7   4  -3  149.69   36.00
   7   4   3  201.18   30.30
   7   0   4    1.30    7.80
  -7   0  -4   -9.90    8.90
  -7   0   4    1.80    9.20
  -7   0  -4    2.30    8.90
   7   0   4   -2.80    8.40
  -7   0   4   -5.00    9.90
   7   0  -4    3.40    8.60
   7   0  -4   -0.90    8.50
  -7  -1  -4  453.85   37.50
   7  -1   4  456.25   40.50
   7   1  -4  461.95   37.60
   7   1  -4  518.05   42.50
  -7   1   4  454.95   44.10
  -7  -1  -4  456.35   42.00
  -7  -1   4  527.85   38.90
   7   1   4  452.35   38.00
   7  -1  -4  520.75   43.70
   7  -1  -4  497.25   38.10
  -7  -1   4  475.05   43.30
  -7   1  -4  479.55   41.50
   7   1   4  410.16   41.10
   7  -2   4  170.38   19.60
  -7  -2  -4  178.68   28.70
  -7  -2  -4  169.38   21.50
  -7   2   4  156.18   27.00
   7   2  -4  175.18   25.30
   7   2  -4  156.18   20.10
  -7   2  -4  140.99   19.90
   7   2   4  115.49   20.00
  -7  -2   4  174.68   29.80
  -7  -2   4  137.09   21.70
   7  -2  -4  131.29   24.80
  -7   2  -4  134.59   21.70
  -7  -3  -4  158.28   23.70
   7  -3   4  164.08   29.40
  -7  -3  -4  158.68   28.40
  -7  -3  -4  202.68   27.60
   7   3  -4  150.88   24.60
  -7   3   4  199.38   35.70
   7  -3   4  197.28   24.80
   7   3   4  217.88   27.40
   7  -3  -4  183.18   34.80
   7  -3  -4  139.59   26.30
  -7  -3   4  211.18   36.30
  -7   3  -4  149.99   25.30
  -7   3  -4  149.49   19.90
  -7  -3   4  138.19   29.30
  -7  -3   4  183.88   27.50
  -7  -4  -4    6.80   29.80
  -7  -4  -4   45.10   30.10
  -7   4   4   62.89   32.10
  -7  -4  -4  109.19   29.60
   7  -4   4  -18.80   29.90
  -7  -4   4   75.19   27.70
   7   4   4   89.39   25.80
  -7   4  -4   41.60   29.60
  -7  -4   4   13.60   33.30
   7  -4  -4   90.19   35.50
   7   0  -5   -5.40    8.00
  -7   0   5  -16.10   11.60
   7   0  -5    2.50    9.30
   7   0   5    5.00    8.60
  -7   0  -5    9.90   10.30
   7   0   5   -3.70    9.40
  -7   0  -5   -3.40    8.90
   7  -1   5  677.03   55.89
  -7   1   5  853.61   63.69
   7   1  -5  731.73   61.09
  -7  -1  -5  708.23   56.79
   7  -1   5  818.52   60.29
   7   1  -5  701.53   56.59
  -7   1  -5  722.63   57.99
   7   1   5  798.12   61.59
   7   1   5  837.82   57.19
  -7  -1   5  752.02   57.49
   7  -1  -5  704.43   61.99
   7  -1  -5  707.43   57.09
  -7   1  -5  703.03   59.69
  -7  -1   5  887.61   63.29
  -7   2   5  305.87   38.50
  -7  -2  -5  331.57   30.50
   7   2  -5  328.87   34.80
  -7  -2  -5  244.58   36.80
  -7  -2  -5  305.17   37.30
   7   2  -5  337.47   29.00
  -7  -2  -5  322.27   32.60
   7  -2   5  296.97   27.90
   7  -2   5  334.27   34.10
   7  -2  -5  302.57   39.20
  -7  -2   5  335.47   30.60
   7   2   5  284.27   30.60
   7  -2  -5  272.57   32.10
  -7   2  -5  326.17   29.50
  -7  -2   5  367.86   39.10
   7  -3   5  106.29   18.10
   7  -3   5  100.39   25.90
   7   3  -5  104.79   19.70
  -7  -3  -5   66.89   14.40
  -7   3   5   85.29   28.20
  -7  -3  -5   94.09   23.00
  -7  -3  -5   44.10   20.40
  -7  -3  -5   73.19   24.50
   7   3   5   98.29   23.10
   7  -3  -5   82.59   36.10
  -7  -3   5   72.89   24.50
  -7  -3   5   90.69   21.50
  -7   3  -5   88.59   24.10
   7  -3  -5   94.59   23.70
  -7  -4  -5  196.18   35.00
  -7  -4  -5  106.89   35.20
  -7   4   5  135.59   37.70
   7  -4   5   87.59   36.70
  -7  -4  -5  128.79   37.70
   7   4   5  239.08   34.10
  -7   4  -5  125.49   32.50
   7  -4  -5  166.48   36.40
  -7  -4   5  152.98   30.50
   7  -4  -5  185.58   41.80
  -7  -4   5  170.48   37.30
   7   0   6   -3.30    9.50
   7   0  -6    5.20    9.70
  -7   0  -6  -12.60   10.90
   7   0   6   -7.50    9.00
  -7   0  -6   -9.10    8.70
   7   0  -6  -15.90    9.00
  -7   0  -6    7.50   10.80
  -7   0   6  -15.70   13.50
   7   1  -6  830.02   57.89
  -7   1   6  683.73   63.59
  -7  -1  -6  782.72   58.09
   7  -1   6  732.83   60.49
  -7  -1  -6  818.32   60.19
  -7   1  -6  812.12   59.39
   7  -1  -6  805.02   64.29
  -7  -1   6  765.72   63.89
   7   1   6  675.03   57.69
  -7  -1   6  758.42   58.69
  -7   1  -6  799.62   60.39
   7   1   6  665.53   61.59
   7  -1  -6  809.12   58.49
   7  -2   6   50.89   15.90
  -7  -2  -6   75.29   17.50
   7   2  -6   99.49   15.60
  -7  -2  -6   44.90   22.50
  -7  -2  -6   55.69   19.50
   7  -2   6   64.09   13.20
  -7   2   6   61.19   20.60
   7   2  -6   71.99   17.40
  -7  -2  -6   69.09   15.20
  -7   2  -6   64.09   15.60
   7   2   6   72.29   17.80
  -7   2  -6   55.29   13.00
  -7  -2   6   60.79   21.10
  -7  -2   6   69.09   17.30
   7  -2  -6   38.70   22.20
   7  -2  -6   75.09   19.30
  -7  -3  -6  161.68   33.60
  -7  -3  -6  123.39   18.60
   7  -3   6  154.88   21.70
  -7  -3  -6  166.88   26.60
  -7  -3  -6  152.48   30.80
   7  -3   6  131.39   27.80
  -7   3   6  187.08   35.10
   7   3  -6  153.98   22.80
  -7  -3   6  193.28   33.20
  -7  -3   6  119.59   30.00
   7  -3  -6  126.39   32.40
   7  -3  -6  146.09   27.30
  -7  -3   6  154.48   25.60
  -7   3  -6  184.08   31.60
   7   3   6  155.78   26.40
  -7   4   6   66.29   34.90
   7   4  -6  121.59   24.90
   7  -4   6   79.29   35.40
   7  -4   6   81.79   38.90
  -7  -4  -6   72.49   36.30
  -7  -4  -6  118.69   37.60
  -7  -4  -6   97.39   41.90
   7  -4  -6   97.29   30.10
   7  -4  -6   68.59   36.90
  -7   4  -6   94.39   31.10
  -7  -4   6  139.49   31.50
   7   4   6  120.59   30.90
  -7  -4   6  124.09   41.80
  -7   0   7   -5.30   14.30
   7   0   7    8.30    9.80
  -7   0  -7    0.20   12.00
   7   0   7    0.10    9.10
   7   0  -7   -4.50   10.10
  -7   0  -7    2.40   11.70
  -7   0  -7   -5.90    9.30
   7   1  -7  142.89   23.10
  -7  -1  -7  157.38   19.70
  -7  -1  -7  150.18   19.80
   7   1  -7  163.58   18.40
  -7  -1  -7  187.38   25.50
  -7   1  -7  176.18   23.70
  -7   1  -7  128.29   21.40
   7  -1  -7  167.18   19.20
  -7  -1   7   98.59   18.40
   7  -1  -7  148.59   26.90
  -7  -2  -7  187.18   32.50
   7  -2   7  176.68   20.20
   7  -2   7  232.58   27.20
  -7  -2  -7  193.58   24.40
  -7  -2  -7  185.28   31.10
  -7   2   7  267.77   37.20
   7   2  -7  176.48   27.70
   7   2  -7  196.88   22.20
  -7  -2  -7  178.38   26.80
   7  -2   7  193.98   20.00
   7   2   7  200.88   26.30
   7  -2  -7  113.39   28.00
  -7  -2   7  220.78   34.30
  -7   2  -7  172.28   25.30
   7  -2  -7  166.68   26.80
  -7   2  -7  199.78   25.30
   7  -3   7   14.70   15.90
  -7  -3  -7   23.90   14.70
  -7  -3  -7   38.20   24.80
   7  -3   7  -26.20   21.90
  -7  -3  -7   -5.40   22.60
  -7   3   7   19.60   27.30
  -7  -3  -7   30.50   22.40
   7   3  -7   26.20   15.80
   7  -3   7   14.80   13.30
  -7  -3   7  -10.20   20.70
  -7  -3   7    0.50   22.60
  -7   3  -7   -0.30   17.70
   7   3   7    6.20   21.10
  -7  -3   7  -25.50   23.50
   7  -3  -7   25.50   21.10
   7  -3  -7   -7.40   26.30
   7  -4   7   69.79   30.80
  -7   4   7   88.49   44.70
  -7  -4  -7   71.29   38.30
   7   4  -7   91.19   20.90
   7  -4   7   27.70   39.30
   7  -4  -7   85.59   29.90
   7   4   7  136.59   37.10
   7  -4  -7  -24.20   47.00
  -7  -4   7  108.09   31.90
   7   0   8   -9.80    9.10
   7   0   8    4.70    9.60
   7   0  -8    9.90   11.70
  -7   0  -8   -1.50   11.90
  -7   0   8    8.30   16.10
  -7   0  -8  -12.80    9.40
  -7   0  -8    1.60   12.50
   7   0  -8   -0.70   10.70
  -7  -1  -8  444.36   44.60
   7   1  -8  536.95   46.20
  -7  -1  -8  446.16   41.20
  -7  -1  -8  463.25   46.20
  -7   1   8  558.04   50.79
  -7  -1  -8  503.95   46.70
   7   1  -8  521.55   40.90
   7  -1   8  505.05   39.30
   7  -1   8  580.04   42.90
  -7  -1   8  540.15   48.40
  -7   1  -8  520.45   42.50
   7  -1  -8  474.55   49.10
   7  -1  -8  504.85   42.40
  -7   1  -8  458.85   44.10
   7   1   8  622.64   48.60
  -7  -1   8  572.24   42.60
   7   2  -8   40.90   13.20
  -7  -2  -8   29.80   18.70
   7  -2   8   48.80   10.60
  -7  -2  -8   37.20   17.50
  -7  -2  -8   26.40   17.80
   7  -2   8   43.40   11.30
   7   2  -8   47.70   15.00
  -7   2   8   33.20   20.80
  -7  -2  -8   33.70   15.20
   7  -2   8   46.70   14.00
   7  -2  -8    0.90   21.40
   7   2   8   45.10   18.30
  -7   2  -8   25.50   13.40
   7  -2  -8   12.20   17.60
  -7  -2   8   40.90   17.60
  -7  -2   8   22.70   20.40
  -7  -3  -8  209.88   31.00
   7  -3   8  203.58   22.00
  -7   3   8  130.59   30.20
  -7  -3  -8   98.49   41.70
   7  -3   8  222.98   42.00
   7   3  -8  201.68   24.00
   7  -3   8  235.18   24.80
  -7  -3  -8  120.89   30.50
   7  -3  -8  170.58   29.60
  -7   3  -8  187.18   31.70
  -7  -3   8  228.88   31.10
   7  -3  -8  160.38   35.90
  -7  -3   8  143.29   31.40
   7   3   8  244.98   32.60
   7   0  -9    0.20   11.30
   7   0   9   -1.80    9.60
   7   0  -9   -0.60   11.40
  -7   0  -9   -5.90   15.20
  -7   0   9    1.60   15.90
  -7   0  -9  -13.00   16.20
  -7   0  -9   13.30   13.00
  -7  -1  -9  384.86   35.50
  -7   1   9  347.27   42.40
   7  -1   9  371.86   30.30
   7   1  -9  419.36   32.70
  -7  -1  -9  423.96   40.80
  -7  -1  -9  336.37   38.70
   7   1   9  384.26   37.40
   7  -1  -9  438.96   38.70
  -7   1  -9  396.36   39.80
   7  -1  -9  409.06   43.60
  -7  -1   9  373.26   42.30
   7   2  -9  168.08   31.90
  -7  -2  -9  124.59   26.10
   7  -2   9  138.99   16.40
  -7   2   9  149.39   28.00
  -7  -2  -9  210.18   26.30
  -7  -2  -9  133.19   21.20
   7   2  -9  164.68   21.80
   7  -2   9  134.69   14.80
   7  -2  -9  132.29   29.80
   7   2   9  161.38   24.60
   7  -2  -9  140.49   23.50
  -7  -2   9  159.78   22.60
  -7  -2   9   78.59   23.50
  -7  -3  -9    4.50   25.20
  -7  -3  -9   91.49   26.20
   7  -3   9   80.89   21.60
  -7   3   9   45.20   30.90
  -7   3   9   43.70   20.10
   7  -3   9   74.09   15.20
   7  -3   9   72.59   13.40
  -7  -3  -9   28.40   27.70
   7   3  -9  110.49   17.10
   7   3   9  115.49   26.30
   7  -3  -9   88.39   33.70
  -7  -3   9   74.19   24.40
  -7  -3   9   80.39   27.90
   7  -3  -9   88.49   25.40
  -7   0 -10   -6.20   14.90
  -7   0 -10    2.60   12.10
  -7   0 -10    4.90    9.40
   7   0 -10   12.50   12.00
   7   0  10   -6.30    8.90
  -7   0  10   32.30   17.90
   7   0 -10    2.00   11.60
  -7  -1 -10  408.16   38.60
  -7  -1 -10  327.67   37.90
   7   1 -10  353.36   30.60
  -7  -1 -10  301.47   37.60
  -7   1  10  301.47   41.30
   7  -1  10  353.16   27.70
  -7  -1 -10  346.17   39.00
   7   1 -10  390.76   37.30
  -7   1 -10  348.47   36.50
   7   1  10  360.06   32.40
  -7  -1  10  386.66   41.00
   7  -1 -10  349.47   41.50
   7  -1 -10  340.97   33.40
   7   2 -10   50.69   15.10
  -7  -2 -10   35.90   19.00
  -7   2  10   30.90   26.00
   7  -2  10   53.59    6.80
   7  -2  10   49.99    9.40
   7   2 -10   36.00   15.40
  -7  -2 -10   36.80   21.20
  -7  -2 -10   26.60   17.40
  -7  -2 -10   20.80   19.20
   7  -2 -10   29.00   26.60
   7  -2 -10   34.80   19.70
  -7  -2  10   43.10   17.80
   7   2  10   67.79   20.40
  -7  -2  10   51.09   20.00
   7  -3  10  107.39   14.90
  -7  -3 -10  136.19   28.30
  -7   3  10   65.99   19.90
   7   3 -10  137.99   17.60
   7  -3 -10  120.09   46.90
   7   3  10  138.69   28.50
   7  -3 -10   89.29   26.10
  -7  -3  10   89.59   36.90
  -7  -3  10   81.19   25.90
   7   0 -11  -11.00   13.00
  -7   0 -11   -7.10   15.70
  -7   0 -11    0.30    9.10
  -7   0 -11   -3.70   11.10
   7   0  11    4.60    9.30
  -7  -1 -11   19.70   17.70
   7   1 -11   43.80   25.80
  -7  -1 -11   23.70   16.30
  -7   1  11   62.99   22.60
   7   1 -11   52.09   13.10
  -7  -1 -11   45.70   15.10
  -7  -1 -11   53.59   23.50
  -7  -1  11   24.30   20.30
   7  -1 -11   16.90   15.90
   7  -1 -11   34.80   16.50
  -7  -2 -11   54.79   20.10
  -7  -2 -11   77.89   25.00
  -7   2  11   69.69   29.10
  -7  -2 -11   39.30   23.20
   7   2 -11   53.69   12.50
  -7  -2  11   42.40   17.70
   7  -2 -11   40.40   20.10
   7  -2 -11   29.10   24.70
   7   2  11   72.49   21.30
  -7  -3 -11  -14.80   18.90
  -7   3  11   17.90   19.00
  -7  -3 -11   28.80   26.60
   7   3 -11   29.30   12.20
  -7  -3  11   22.10   22.20
   7   3  11   91.39   27.80
  -7  -3  11   49.40   26.90
   7  -3 -11   18.80   24.10
   7   0 -12   -7.00   15.10
   7   0  12    2.40    9.10
  -7   0  12    1.50   18.90
   7   0 -12   -1.80   13.10
  -7   0 -12   -7.50    8.00
  -7  -1 -12   98.69   21.00
  -7  -1 -12  128.19   18.50
  -7  -1 -12   86.29   21.30
  -7   1  12  167.68   30.70
   7  -1 -12   95.59   20.50
   7  -1 -12   98.99   18.50
   7  -1 -12   56.79   22.20
  -7  -1  12  102.09   23.50
   7   1  12  151.38   20.90
  -7  -2 -12   40.50   20.20
  -7   2  12    3.60   19.30
   7   2 -12   27.50   10.10
   7  -2 -12   27.80   21.30
   7   2  12   53.79   21.70
   7  -2 -12    7.00   18.90
   7   0 -13   -5.40   11.50
   7   0 -13    4.90   13.60
   7   1 -13  133.19   22.30
  -7  -1 -13   54.19   19.60
  -7  -1 -13   75.69   17.30
   7  -1 -13   86.79   17.90
   7  -1 -13   65.69   19.30
   7   1  13  110.59   18.50
  -7   2  13   21.30   22.80
  -7  -2 -13   18.60   21.90
  -7  -2 -13   52.39   20.90
   7  -2 -13   20.70   25.20
   7   2  13   88.19   22.70
   7  -2 -13   38.50   19.80
   7   0 -14    3.80   14.20
   7   0 -14   -2.20   11.50
  -7  -1 -14   46.70   20.70
   7   1 -14  104.49   14.20
   7  -1 -14  125.59   19.70
   7  -1 -14   77.89   21.00
   7   2  14   53.19   21.50
   7  -2 -14   24.30   20.80
   7  -2 -14   -3.50   21.30
  -7   0  15  -13.40   22.60
   7   0 -15   -5.30   13.70
  -7   1  15   16.30   24.40
  -7  -1 -15  -15.00   21.40
   7   1 -15   29.20    5.60
  -7  -1  15    7.70   27.40
   7  -1 -15    2.20    3.40
   7  -1 -15   44.20   19.90
  -8   0   0 2224.08  170.18
   8   0   0 2362.66  166.38
   8   0   0 2279.27  170.28
  -8   0   0 2413.86  166.68
  -8  -1   0  192.58   25.30
   8  -1   0  175.08   17.60
   8   1   0  139.49   19.30
   8  -1   0  137.49   22.70
  -8   1   0  153.58   24.90
   8   1   0  142.99   23.20
  -8  -1   0  159.38   19.00
   8   2   0  109.09   21.30
  -8  -2   0   89.19   19.50
  -8   2   0   83.59   23.20
  -8  -2   0   88.39   16.70
   8   2   0   90.29   17.60
   8  -2   0   66.19   20.40
  -8  -3   0  465.15   51.79
   8  -3   0  458.45   59.99
  -8  -3   0  454.95   51.79
   8   3   0  515.95   42.60
  -8  -3   0  460.75   42.70
  -8   3   0  405.26   51.49
   8  -3   0  457.75   43.50
   8   4   0   74.69   27.60
  -8  -4   0   14.50   29.20
  -8   4   0   48.90   29.10
   8  -4   0   56.39   35.60
  -8  -4   0   58.49   33.40
   8  -4   0   14.50   28.90
   8   0  -1 3388.66  227.68
  -8   0  -1 3084.99  231.28
   8   0   1 3152.28  227.38
   8   0  -1 3171.78  231.58
  -8   0   1 3368.06  228.08
  -8   0   1 2958.90  231.28
   8   0   1 3091.09  231.18
  -8   0  -1 3300.17  227.58
  -8   1   1  168.38   27.50
   8  -1   1  188.58   25.20
  -8  -1  -1  165.48   26.20
   8   1  -1  184.28   20.80
  -8  -1  -1  207.98   20.90
   8  -1   1  213.48   19.90
   8   1  -1  201.58   25.20
   8   1   1  194.58   21.30
  -8  -1   1  206.68   20.80
   8   1   1  190.38   25.50
   8  -1  -1  203.48   19.80
  -8  -1   1  177.38   27.30
   8   2  -1 1005.00   72.89
   8  -2   1  891.31   77.29
  -8  -2  -1  970.10   72.89
   8   2  -1 1045.00   79.09
  -8  -2  -1 1079.19   79.79
  -8   2   1  944.41   79.29
  -8   2  -1 1039.80   78.69
  -8  -2   1  915.41   72.89
   8   2   1  920.81   72.89
   8   2   1 1013.60   79.19
  -8  -2   1  883.21   78.19
   8  -2  -1  900.21   78.39
  -8  -3  -1   79.09   19.50
   8   3  -1   17.20   17.70
   8  -3   1   -0.40   17.80
   8  -3   1   27.30   21.00
  -8  -3  -1  -16.50   22.90
  -8  -3  -1   59.99   22.40
  -8   3   1   33.70   19.60
   8   3   1   38.80   18.40
  -8   3  -1   29.30   19.90
  -8  -3   1   41.30   19.10
  -8  -3   1   33.90   22.10
   8  -3  -1   18.50   19.30
  -8  -3   1   17.60   21.40
  -8  -4  -1   75.29   14.00
  -8   4   1   75.39   34.80
   8  -4   1   56.39   32.80
   8  -4   1  108.69   31.90
  -8  -4  -1  138.19   36.80
   8   4  -1  113.49   40.80
  -8  -4   1   25.60   29.10
  -8  -4   1  127.09   40.20
   8   4   1  133.09   32.20
  -8   4  -1  103.49   35.90
  -8  -4   1   11.80   29.80
   8  -4  -1  126.29   30.60
   8  -4  -1  113.69   37.80
  -8   0  -2  203.68   25.90
   8   0   2  240.38   22.20
   8   0   2  220.98   26.10
   8   0  -2  234.28   21.30
  -8   0   2  226.78   22.10
  -8   0  -2  219.98   22.10
   8   0  -2  209.78   25.80
  -8   0   2  216.88   27.00
  -8  -1  -2   92.59   18.30
   8   1  -2  118.69   16.50
  -8  -1  -2  109.79   16.60
   8  -1   2   88.29   16.20
   8  -1   2  105.49   15.70
  -8   1   2  101.09   20.00
   8   1  -2  100.79   18.90
  -8  -1   2  118.69   16.90
  -8  -1   2  118.69   20.70
   8  -1  -2  103.99   20.00
   8   1   2  123.59   21.60
   8   1   2  115.39   16.70
   8  -1  -2  123.59   16.20
  -8   1  -2  112.29   19.50
   8  -2   2  101.39   16.20
  -8  -2  -2   88.09   17.00
   8  -2   2   49.00   18.20
   8   2  -2  125.39   22.30
  -8   2   2  109.59   23.00
  -8  -2  -2   72.69   19.40
   8   2  -2   94.49   17.00
   8   2   2   82.29   17.70
  -8   2  -2   82.99   23.10
   8   2   2   57.79   14.10
  -8  -2   2   67.89   16.60
   8  -2  -2   65.19   20.30
  -8   3   2  124.29   27.10
  -8  -3  -2  234.98   28.40
   8   3  -2  205.18   26.50
  -8  -3  -2  217.08   37.40
  -8  -3  -2  128.89   27.80
   8  -3   2  173.18   30.50
   8  -3   2  180.58   27.40
   8  -3  -2  145.19   32.10
  -8  -3   2  204.08   28.40
   8  -3  -2  198.88   29.60
  -8  -3   2  245.48   44.10
  -8   3  -2  193.28   34.50
   8   3   2  172.08   27.60
  -8  -3   2  141.49   29.90
  -8   3  -2  222.88   20.70
  -8  -4  -2   78.79   42.30
  -8  -4  -2    4.80   11.50
  -8   4   2  -33.30   32.10
   8  -4   2   -9.30   31.30
   8  -4   2    9.70   23.80
  -8  -4  -2   27.20   29.00
  -8  -4   2  -50.49   27.90
   8  -4  -2   32.50   27.60
  -8   4  -2   25.80   27.20
  -8  -4   2   45.50   27.50
   8   4   2   34.00   26.00
   8  -4  -2   80.19   31.40
  -8   0   3 3841.32  279.37
   8   0  -3 3858.91  278.87
  -8   0   3 3896.81  274.97
  -8   0  -3 3442.36  278.17
  -8   0  -3 3843.62  274.57
   8   0   3 4160.08  275.97
   8   0  -3 3932.51  274.77
   8   0   3 3916.91  278.57
  -8  -1  -3   62.19   13.60
  -8   1   3   37.70   15.60
   8  -1   3   51.79   11.70
   8   1  -3   61.09   13.30
   8  -1   3   26.80   11.20
  -8  -1  -3   37.50   14.40
   8   1  -3   31.00   13.10
   8  -1  -3   60.09   17.10
  -8  -1   3   26.30   13.00
   8   1   3   46.00   13.70
   8  -1  -3   51.09   12.80
  -8  -1   3   57.49   13.70
   8   1   3   42.20   13.00
  -8   1  -3   62.39   16.10
  -8   2   3 1391.66  107.19
   8  -2   3 1392.06   99.29
  -8  -2  -3 1290.27   99.79
   8   2  -3 1330.47   99.59
   8   2  -3 1518.95  108.09
   8  -2   3 1280.67  103.59
  -8  -2  -3 1316.17  105.99
   8  -2  -3 1420.76  106.59
   8   2   3 1367.76  106.29
  -8  -2   3 1358.76  106.49
  -8  -2   3 1357.46  100.09
   8   2   3 1260.97   99.99
  -8   2  -3 1355.66  104.29
  -8  -3  -3   -8.90   20.70
   8   3  -3   20.00   17.20
  -8  -3  -3  -17.90   19.80
  -8   3   3   -1.80   23.00
   8  -3   3   23.20   17.50
   8  -3   3   25.50   21.80
  -8  -3  -3   32.00   19.80
  -8   3  -3    2.90   18.20
   8  -3  -3   14.00   20.30
   8   3   3   14.80   19.60
  -8   3  -3   -6.30    9.10
   8  -3  -3  -35.60   20.20
  -8  -3   3   23.60   21.10
  -8  -3   3   19.50   18.70
  -8   4   3   53.09   46.50
  -8  -4  -3   39.10   12.70
   8  -4   3   77.89   26.00
  -8  -4  -3   53.39   34.80
   8   4  -3   85.39   27.60
  -8  -4  -3   56.79   29.90
   8  -4   3   39.40   33.40
  -8   4  -3   44.80   36.50
  -8  -4   3   96.89   28.30
   8  -4  -3   76.29   27.20
   8   4   3   73.79   26.70
   8  -4  -3   76.99   33.00
  -8  -4   3   15.90   32.50
   8   0  -4  136.59   21.70
   8   0  -4  150.68   17.20
   8   0   4  137.89   22.20
   8   0   4  150.48   18.20
  -8   0  -4  151.88   21.60
  -8   0   4  141.89   25.40
  -8   0   4  121.59   18.40
   8   1  -4  112.89   15.50
  -8   1   4   82.29   19.60
  -8  -1  -4   57.09   16.10
   8  -1   4   81.19   13.30
   8   1  -4   69.89   16.50
   8  -1   4   54.79   13.70
  -8  -1  -4   95.99   15.30
  -8  -1   4  104.69   16.40
  -8   1  -4   95.69   17.70
   8  -1  -4   90.79   14.50
   8  -1  -4   33.70   15.40
   8   1   4   65.69   15.10
   8   1   4   88.29   15.30
  -8  -1   4   52.59   17.20
   8   2  -4   46.50   15.30
  -8   2   4   54.89   18.50
   8   2  -4   58.19   17.60
   8  -2   4   47.90   16.60
   8  -2   4   50.89   16.20
  -8  -2  -4   50.19   19.30
  -8  -2  -4   49.50   16.50
  -8  -2   4   52.19   20.40
  -8   2  -4   32.00   12.60
  -8   2  -4   47.50   15.90
   8   2   4   44.50   16.30
   8  -2  -4   29.50   18.90
  -8  -2   4   55.79   17.10
   8  -3   4  200.08   27.30
   8  -3   4  192.88   32.30
  -8  -3  -4  218.18   38.40
  -8  -3  -4  167.98   29.60
  -8  -3  -4  202.48   27.30
  -8   3   4  154.78   29.20
  -8  -3  -4  207.78   29.50
   8   3  -4  197.88   26.70
  -8   3  -4  198.38   22.30
  -8  -3   4  168.58   32.00
   8  -3  -4  188.98   28.60
  -8   3  -4  162.18   30.40
   8  -3  -4  125.39   31.90
  -8  -3   4  248.98   30.10
   8   3   4  236.68   29.80
  -8   4   4  -45.70   36.00
   8  -4   4    9.90   21.90
   8  -4   4  -43.10   29.00
  -8  -4  -4   -5.20   12.10
  -8  -4  -4  -54.49   33.10
  -8  -4  -4   -2.20   27.70
   8   4  -4   19.30   20.80
  -8  -4   4    7.30   26.00
   8  -4  -4   16.80   29.20
   8  -4  -4  -10.40   24.50
   8   4   4   30.70   28.80
  -8   4  -4   19.40   33.00
   8   0  -5 2117.09  150.18
   8   0  -5 1992.40  154.28
   8   0   5 2068.19  149.69
   8   0   5 2170.08  154.08
  -8   0  -5 2056.59  153.58
  -8   0   5 2105.59  155.78
  -8   1   5   -6.60   12.10
   8   1  -5   18.30   12.20
  -8  -1  -5    0.40   12.20
   8   1  -5    2.00   11.50
  -8  -1  -5   -4.20   11.70
   8  -1   5    1.00    9.90
   8   1   5    2.80   11.10
  -8  -1   5  -11.50   12.30
   8   1   5    0.80   12.30
  -8   1  -5    8.50   13.30
  -8  -1   5    0.20   12.60
  -8   1  -5    3.30   12.10
   8  -1  -5    7.70   11.60
   8  -1  -5   10.50   13.50
  -8  -2  -5  537.65   48.20
  -8   2   5  612.54   57.69
  -8  -2  -5  547.35   55.49
   8  -2   5  594.54   52.49
   8  -2   5  600.84   46.90
   8   2  -5  604.64   48.20
   8   2  -5  661.83   54.69
  -8  -2  -5  651.33   50.49
   8   2   5  575.84   48.80
  -8  -2   5  641.04   57.39
   8  -2  -5  570.54   57.19
  -8   2  -5  629.44   48.20
  -8   2  -5  461.95   57.79
  -8  -2   5  612.54   51.59
   8   3  -5   -5.30   16.00
  -8  -3  -5   30.00   22.00
  -8  -3  -5   17.90   23.40
  -8   3   5   29.20   23.20
   8  -3   5  -28.30   21.20
  -8  -3  -5  -23.90   23.20
  -8  -3  -5  -18.60   13.10
   8  -3   5   10.20   16.80
   8  -3  -5    0.30   24.70
   8   3   5   18.90   20.50
  -8  -3   5   26.80   20.20
   8  -3  -5    8.80   21.30
  -8   3  -5   26.70   24.40
  -8  -3   5  -12.20   24.00
  -8   3  -5   -4.40   10.70
   8  -4   5    1.90   32.30
   8   4  -5   67.69   22.80
  -8  -4  -5   47.70   31.30
   8  -4   5   44.70   21.10
  -8   4   5   49.00   30.90
  -8  -4  -5   24.20   30.80
   8  -4  -5   63.89   26.70
  -8  -4   5   52.39   28.40
  -8   4  -5    2.90   29.40
  -8  -4   5  -16.90   32.60
   8  -4  -5   32.30   30.50
  -8   0  -6   60.09   13.80
   8   0   6   87.59   14.80
   8   0  -6  101.39   14.90
  -8   0   6   73.09   32.20
  -8   0  -6   59.99   16.50
  -8   0  -6   86.99   16.00
   8   0   6   99.39   17.20
   8   0  -6   58.89   14.50
   8   1  -6   23.50   12.10
  -8  -1  -6    5.40   14.20
  -8  -1  -6   28.10   13.30
   8   1  -6   10.10   11.90
   8  -1   6   31.10   12.40
   8  -1   6   19.10   11.00
   8   1   6   18.50   11.50
   8  -1  -6   40.00   13.20
   8   1   6   28.00   13.70
  -8   1  -6    4.40   13.60
  -8  -1   6   22.10   15.10
  -8  -1   6   20.40   14.30
  -8   1  -6   14.50   12.50
   8  -1  -6   24.30   14.20
  -8   2   6   32.60   17.60
   8  -2   6   43.70   15.30
   8   2  -6   18.20   14.30
   8   2  -6   36.60   15.40
  -8  -2  -6   15.10   16.10
  -8  -2  -6   17.40   15.40
   8  -2   6   46.90   13.20
  -8  -2  -6   54.39   17.60
  -8  -2  -6   29.60   25.70
  -8  -2   6   14.70   19.00
  -8   2  -6   28.10   13.00
   8  -2  -6   43.60   31.80
   8   2   6   31.00   17.40
  -8   2  -6   48.50   15.80
  -8  -2   6   27.50   18.70
   8  -3   6  164.98   30.50
  -8   3   6  152.78   31.00
  -8  -3  -6  157.88   31.90
   8   3  -6  195.78   26.50
  -8  -3  -6  184.58   34.00
   8  -3   6  174.68   24.50
  -8  -3  -6  222.78   31.70
  -8  -3  -6  207.08   28.00
  -8  -3   6  204.18   30.10
  -8   3  -6  203.08   33.40
  -8  -3   6  157.88   33.30
   8   3   6  207.08   31.00
   8  -3  -6  214.48   30.20
   8  -3  -6  155.18   34.20
  -8   4   6  -43.40   35.10
  -8   4   6  -13.10   10.10
   8  -4   6  -10.60   18.80
   8   4  -6    2.10   19.90
   8  -4   6  -32.80   35.30
  -8  -4  -6  -29.20   31.70
  -8  -4  -6   31.50   33.00
   8  -4  -6   16.80   26.80
   8  -4  -6  -48.40   29.80
  -8   4  -6   13.40   31.20
  -8  -4   6  -24.00   27.10
   8   0  -7 1752.62  128.49
  -8   0  -7 1469.35  122.29
  -8   0  -7 1644.54  124.49
  -8   0   7 1793.52  129.79
   8   0   7 1662.03  126.19
   8   0  -7 1812.32  123.49
   8   0   7 1619.74  122.39
  -8   0  -7 1894.11  135.59
   8   1  -7   -0.30   11.60
  -8  -1  -7  -11.10   13.60
   8  -1   7   15.80   10.80
  -8  -1  -7   -1.80   13.20
   8   1  -7    3.10   11.50
  -8   1   7    3.00   15.70
  -8  -1  -7   15.50   13.20
   8  -1   7   -1.80   11.60
  -8   1  -7    8.30   12.80
   8  -1  -7    9.60   13.20
   8   1   7    0.80   13.30
  -8  -1   7    2.30   14.70
  -8   1  -7    3.80   13.00
   8  -1  -7   10.30   16.30
  -8  -1   7   16.90   13.60
  -8  -2  -7  542.25   47.60
  -8   2   7  638.14   59.39
  -8  -2  -7  543.85   55.39
  -8  -2  -7  615.84   50.69
  -8  -2  -7  555.64   55.59
   8  -2   7  537.55   45.10
   8   2  -7  631.34   53.09
  -8   2  -7  552.74   49.90
   8  -2  -7  520.65   49.80
  -8  -2   7  685.03   58.29
  -8   2  -7  512.55   47.60
   8   2   7  564.24   48.40
   8  -2  -7  500.35   56.49
  -8  -2   7  683.93   49.70
  -8  -3  -7   24.40   23.80
   8  -3   7    2.50   23.00
   8  -3   7   32.80   14.60
   8  -3   7   27.90   17.70
  -8  -3  -7   22.50   23.60
   8   3  -7   33.40   16.50
  -8  -3  -7   13.20   17.90
  -8   3   7   15.50   24.50
  -8  -3  -7   -3.20   26.20
   8  -3  -7   34.30   23.50
  -8  -3   7   -4.50   23.30
  -8   3  -7   40.20   20.60
   8  -3  -7   17.80   22.90
  -8  -3   7   36.60   22.30
   8   3   7   43.50   23.40
  -8  -4  -7   51.69   38.00
   8  -4   7   53.39   26.20
   8  -4   7   53.39   19.70
  -8  -4  -7  -33.80   38.00
  -8   4   7  -20.60   44.90
  -8  -4  -7  -20.00   39.70
   8   4  -7   79.09   21.90
   8  -4  -7   39.40   41.90
  -8  -4   7   54.49   45.70
   8   4   7  117.29   41.70
   8  -4  -7   69.49   29.40
   8   0   8   13.80   11.40
  -8   0   8   25.70   18.00
   8   0  -8   25.80   12.50
   8   0   8   10.40   11.10
  -8   0  -8    4.60   13.70
   8   0  -8   23.00   13.00
  -8   0  -8   15.30   14.60
  -8   0  -8    7.00   11.50
   8   1  -8  122.59   17.40
   8  -1   8   74.19   15.80
   8   1  -8  117.49   20.10
  -8  -1  -8   78.09   19.90
  -8   1   8   97.49   22.70
   8  -1   8  113.99   14.30
  -8  -1  -8   79.99   18.30
  -8  -1  -8  102.49   17.70
   8   1   8  142.39   18.40
   8  -1  -8   99.39   18.40
  -8   1  -8   84.69   17.10
  -8  -1   8  128.29   18.30
  -8  -1   8   55.89   20.00
  -8   1  -8   74.79   16.80
   8  -1  -8   96.59   22.10
  -8  -2  -8   55.69   19.50
  -8  -2  -8   23.20   18.90
  -8  -2  -8   36.50   22.50
  -8  -2  -8   23.70   16.50
   8   2  -8   38.50   15.90
   8  -2   8   56.79   16.70
   8  -2   8   57.49   12.60
   8   2  -8   57.19   16.20
   8  -2   8   43.20   12.30
  -8   2   8   22.70   20.40
  -8  -2   8   57.39   19.30
   8  -2  -8   18.50   19.50
  -8   2  -8   34.20   15.00
   8   2   8   73.79   20.10
  -8   2  -8   31.60   14.50
   8  -2  -8   23.50   22.60
   8  -3   8  181.08   22.40
   8  -3   8  204.88   42.80
   8  -3   8  196.18   25.50
  -8   3   8  153.88   36.30
  -8  -3  -8  165.78   34.80
  -8  -3  -8  194.78   31.00
   8   3  -8  218.58   25.10
  -8  -3  -8  169.88   33.70
  -8  -3  -8  138.79   23.10
  -8  -3   8  145.59   34.30
  -8   3  -8  154.38   27.30
   8   3   8  231.58   31.90
   8  -3  -8  146.19   29.70
   8  -3  -8  117.39   30.10
  -8  -3   8  172.78   29.70
  -8   0  -9  659.23   52.89
  -8   0   9  642.04   57.79
   8   0   9  601.84   47.40
   8   0  -9  623.24   54.59
  -8   0  -9  679.73   53.19
  -8   0  -9  501.25   47.20
   8   0  -9  640.34   49.10
   8   1  -9   33.90   13.30
   8   1  -9   23.60   14.00
  -8  -1  -9   37.90   15.40
   8  -1   9   24.90   10.60
  -8  -1  -9   11.40   13.10
  -8  -1  -9   14.00   15.90
  -8   1   9   12.50   19.70
   8  -1   9   13.80   10.20
  -8  -1  -9    7.20   15.80
   8  -1  -9   26.90   15.10
   8  -1  -9    5.00   18.00
  -8   1  -9   12.50   16.60
  -8  -1   9   23.90   20.20
   8   1   9   27.70   15.50
  -8  -2  -9  381.86   38.30
   8  -2   9  404.56   31.40
  -8  -2  -9  351.06   47.80
  -8   2   9  399.56   51.09
   8   2  -9  428.56   34.80
   8   2  -9  425.96   41.70
  -8  -2  -9  356.36   41.40
   8  -2   9  373.16   32.20
  -8  -2   9  459.95   39.70
   8  -2  -9  321.47   39.10
   8  -2  -9  273.17   46.90
  -8   2  -9  398.76   39.20
   8   2   9  482.95   40.00
  -8  -2   9  353.76   46.30
   8  -3   9   25.50   20.60
  -8  -3  -9  -20.20   31.70
  -8  -3  -9   38.00   27.00
  -8  -3  -9   16.40   25.00
   8   3  -9   -5.70   14.80
  -8   3   9  -26.20   24.70
   8  -3   9    8.40   12.30
   8  -3   9    5.10   14.10
  -8  -3  -9   14.10   17.80
   8   3   9   -1.30   23.50
   8  -3  -9    1.20   27.50
  -8  -3   9   18.30   27.80
   8  -3  -9   18.40   23.80
  -8  -3   9    4.60   25.10
  -8   0 -10    4.90   16.00
  -8   0 -10   23.00   15.30
  -8   0  10   10.10   18.50
   8   0 -10    4.80   13.80
   8   0  10   12.90   10.90
  -8  -1 -10   22.00   17.10
  -8  -1 -10   22.40   16.70
  -8  -1 -10   32.70   17.60
  -8  -1 -10   23.60   17.30
   8   1 -10   52.59   15.70
   8  -1  10   30.60    9.40
   8   1 -10   39.60   14.70
  -8   1  10    6.60   19.80
  -8   1 -10   26.70   16.80
   8  -1 -10   36.80   20.00
   8  -1 -10   32.30   16.10
  -8  -2 -10   46.80   22.40
  -8   2  10   69.39   27.70
  -8  -2 -10   45.20   25.20
  -8  -2 -10  109.79   22.60
   8   2 -10   93.29   20.20
  -8  -2 -10   65.29   20.70
   8  -2  10  105.99   11.90
   8   2 -10  136.49   18.00
  -8  -2  10  118.59   22.60
   8   2  10  130.09   24.10
   8  -2 -10   51.69   32.20
   8  -2 -10   67.09   21.50
   8  -2 -10   88.39   22.30
  -8  -3 -10   -1.70   31.30
  -8   3  10   14.00   18.40
   8  -3  10   15.20   11.00
  -8  -3 -10   27.60   26.80
   8   3 -10   42.10   14.80
   8  -3 -10   11.50   24.00
  -8  -3  10   40.40   41.30
   8   3  10   37.60   25.80
  -8  -3  10   37.90   26.60
   8   0  11  888.51   65.89
  -8   0  11  779.52   74.99
  -8   0 -11  895.01   70.99
  -8   0 -11  837.12   72.49
   8   0 -11  898.11   68.19
  -8   0 -11 1025.00   72.19
   8   1 -11   21.30   13.50
  -8  -1 -11   29.80   17.90
  -8  -1 -11    9.90   18.20
   8   1 -11   13.20   14.20
  -8  -1 -11  -16.80   17.70
  -8  -1 -11    4.60   20.00
  -8   1  11  -16.60   21.20
  -8  -1  11  -12.20   19.60
   8  -1 -11    3.60   18.20
   8  -1 -11   16.70   16.20
  -8   1 -11   16.30   17.00
   8  -1 -11    8.00   17.90
   8   1  11   10.70   16.40
  -8  -2 -11  460.55   49.60
   8   2 -11  516.65   39.00
  -8  -2 -11  429.36   51.29
  -8  -2 -11  450.95   43.10
   8   2  11  522.05   44.90
   8  -2 -11  413.26   58.59
   8  -2 -11  424.96   44.70
  -8  -2  11  482.35   43.20
   8   3 -11   11.70   13.10
  -8   3  11    1.30   20.30
  -8  -3 -11   22.70   27.80
   8  -3 -11   14.50   24.60
   8   3  11   59.19   27.90
  -8  -3  11   57.59   28.60
  -8  -3  11    6.20   24.60
  -8   0 -12   38.00   18.60
  -8   0  12   35.10   25.10
   8   0  12   20.00   10.50
   8   0 -12   19.10   14.40
  -8   0 -12   20.90   13.20
   8   0 -12   -6.70   15.20
  -8   0 -12   11.30    9.90
  -8  -1 -12   21.80   16.40
   8   1 -12   29.70   13.60
  -8  -1 -12   12.90   19.50
  -8  -1 -12   34.40   18.90
   8  -1 -12   34.60   17.70
   8  -1 -12   35.00   26.70
   8  -1 -12   -4.50   16.50
   8   1  12   38.80   16.40
   8   2 -12   -0.50   11.50
  -8  -2 -12   27.70   30.90
  -8  -2 -12   18.80   20.90
   8   2  12   15.60   22.10
   8  -2 -12   -0.50   19.50
   8  -2 -12    2.40   21.20
   8   0  13  197.48   18.40
   8   0 -13  138.79   23.40
  -8  -1 -13    8.00   20.40
  -8  -1 -13    6.70   15.70
   8   1 -13   -0.70   11.70
   8  -1 -13    8.50   17.70
   8   1  13   14.90   16.00
   8  -1 -13   -6.30   16.30
  -8   2  13   73.69   24.60
  -8  -2 -13   59.49   26.30
   8   2 -13   79.99   12.60
  -8  -2 -13   80.79   23.30
   8  -2 -13   77.79   23.30
   8  -2 -13   96.99   23.80
   8   0 -14   -3.10   12.50
   8   0 -14   -5.80   14.90
  -8  -1 -14   15.60   22.30
  -8  -1 -14  -10.00   12.70
   8   1 -14   20.90   11.60
   8  -1 -14   15.20   16.90
   8  -1 -14   38.20   19.60
   8   1  14   53.49   17.00
   8   0 -15  121.89   20.20
  -9   0   0   -2.50   10.60
  -9   0   0    6.60   12.10
   9   0   0    3.00   10.30
   9   0   0   -7.70   10.20
  -9  -1   0   74.29   19.50
   9   1   0  115.29   17.10
  -9  -1   0   94.29   15.80
  -9   1   0   73.69   30.00
   9  -1   0   64.59   16.50
   9   1   0   96.69   19.10
   9  -1   0   81.09   14.80
  -9  -2   0   41.90   15.90
   9  -2   0   47.50   15.40
   9  -2   0   30.00   18.10
   9   2   0   26.00   16.10
  -9   2   0   21.80   22.00
   9   2   0   45.50   17.00
  -9  -2   0   19.40   17.70
   9  -3   0   61.39   33.90
  -9  -3   0   29.80   22.70
  -9  -3   0   49.80   20.70
   9   3   0   45.60   19.50
  -9   3   0   28.20   21.70
   9  -3   0   -0.30   19.10
  -9  -4   0  116.79   29.90
   9   4   0   44.00   27.00
  -9  -4   0   11.50   33.20
  -9   4   0    5.50   29.70
   9  -4   0  -13.70   31.20
   9  -4   0   29.10   23.70
  -9  -4   0   21.10   35.40
   9   0   1   -7.90   10.60
  -9   0   1    2.40   11.40
  -9   0   1   -3.50   11.30
   9   0  -1  -10.60    8.90
   9   0   1    2.50    9.10
  -9   0  -1    0.90   11.80
  -9   0  -1  -11.20   10.70
   9   0  -1   -3.70   10.80
  -9   1   1  945.51   82.39
  -9  -1  -1 1065.69   82.79
   9   1  -1 1020.00   77.09
   9  -1   1 1083.19   76.49
  -9  -1  -1 1085.09   76.89
   9  -1   1 1084.99   81.59
   9   1  -1  976.40   81.99
   9   1   1 1025.30   82.39
   9  -1  -1 1100.59   76.69
  -9  -1   1 1052.89   77.09
  -9   1  -1  964.30   81.79
  -9  -1   1 1001.60   82.69
   9  -1  -1 1004.30   81.49
   9   1   1  983.50   76.89
  -9   2   1  211.58   34.00
  -9  -2  -1  234.48   26.30
  -9  -2  -1  196.68   35.30
   9   2  -1  189.58   25.40
   9  -2   1  241.98   25.60
   9   2  -1  222.68   31.10
   9  -2   1  178.48   31.90
  -9  -2   1  203.78   34.30
   9  -2  -1  273.87   25.70
  -9   2  -1  202.78   32.30
  -9  -2   1  236.98   26.70
   9   2   1  175.58   25.90
   9   2   1  219.48   31.30
   9  -2  -1  190.18   33.30
   9   3  -1  218.98   27.80
  -9   3   1  220.78   35.70
   9  -3   1  175.78   27.20
  -9  -3  -1  171.68   32.00
  -9  -3  -1  212.98   30.30
  -9  -3  -1  160.38   30.80
   9  -3   1  147.79   31.10
  -9  -3   1  180.88   32.60
   9  -3  -1  166.48   31.30
   9  -3  -1  191.58   27.90
  -9   3  -1  143.39   28.00
  -9  -3   1  213.08   28.20
   9   3   1  179.48   28.30
   9   4  -1  231.08   32.90
  -9  -4  -1  137.49   42.40
  -9   4   1  147.69   42.80
  -9  -4  -1  165.78   40.40
  -9  -4  -1  247.98   37.60
  -9  -4  -1  162.38   20.70
   9  -4   1  129.09   38.40
   9  -4   1  160.78   29.70
  -9  -4   1  231.48   35.30
  -9  -4   1  152.58   34.50
  -9   4  -1  254.27   61.49
   9  -4  -1  128.59   35.90
   9  -4  -1  135.89   29.70
   9   4   1  240.58   45.20
  -9   0  -2    0.70   11.70
  -9   0  -2    0.20   12.60
   9   0  -2  -12.80   10.40
  -9   0   2  -14.30   10.80
   9   0   2    3.40   11.30
  -9   0   2   -3.70   11.30
   9   0  -2    5.80   10.30
   9   0   2    2.10   10.80
  -9   1   2 2182.48  171.38
   9  -1   2 2316.37  165.68
   9  -1   2 2219.98  169.68
   9   1  -2 2271.57  171.28
  -9  -1  -2 2380.06  171.08
  -9  -1  -2 2399.06  165.98
   9   1  -2 2243.88  165.98
   9   1   2 2228.88  166.08
  -9  -1   2 2335.07  171.48
  -9  -1   2 2482.15  166.38
  -9   1  -2 2142.49  169.98
   9   1   2 2201.48  174.08
   9  -1  -2 2584.44  166.38
   9  -1  -2 2284.17  170.48
   9   2  -2  164.08   21.00
   9  -2   2   78.39   21.50
   9   2  -2  131.89   27.80
   9  -2   2  105.49   18.40
  -9  -2  -2  122.89   23.40
  -9  -2  -2  109.09   19.70
  -9   2   2  120.29   22.30
  -9   2  -2   93.09   21.90
   9   2   2  139.79   21.10
  -9  -2   2  120.89   20.20
   9   2   2  152.88   26.50
   9  -2  -2  102.69   23.00
  -9  -2   2  108.59   24.20
  -9  -3  -2  252.47   45.00
   9   3  -2  286.77   33.20
   9  -3   2  272.07   44.60
   9  -3   2  315.87   34.70
  -9   3   2  369.06   46.90
  -9  -3  -2  257.67   43.70
  -9  -3  -2  340.37   35.80
   9  -3  -2  286.37   36.50
  -9  -3   2  343.57   46.90
   9   3   2  316.17   34.80
  -9   3  -2  303.97   29.20
  -9   3  -2  270.57   42.90
   9  -3  -2  379.56   47.60
  -9  -3   2  321.27   35.30
   9  -4   2   71.19   24.40
  -9  -4  -2   76.29   16.30
  -9  -4  -2  109.19   34.90
  -9  -4  -2  132.99   64.29
  -9   4   2  112.79   37.20
   9   4  -2   87.89   26.40
  -9  -4  -2  141.69   32.10
   9  -4   2   42.00   34.10
   9   4   2  124.79   32.10
  -9   4  -2   50.69   34.20
   9  -4  -2   72.39   26.90
  -9  -4   2  155.98   40.30
   9  -4  -2  128.59   39.00
  -9  -4   2   92.99   29.10
  -9   0   3   -2.00   12.90
   9   0   3   -5.70   10.20
  -9   0   3   -5.70   11.10
   9   0  -3    3.80   10.40
   9   0   3   -3.10   11.60
   9   0  -3    0.40    8.90
  -9   0  -3   -8.00   11.10
  -9   0  -3   -2.90   12.20
  -9   1   3  687.33   61.69
  -9  -1  -3  692.03   53.89
  -9  -1  -3  669.93   64.39
   9   1  -3  682.13   53.49
   9  -1   3  685.83   57.59
   9   1  -3  640.84   58.59
   9  -1   3  713.83   52.99
   9   1   3  664.23   58.99
  -9  -1   3  703.93   60.99
  -9  -1   3  733.43   54.19
   9   1   3  662.63   53.79
   9  -1  -3  674.83   58.79
   9  -1  -3  737.63   53.69
  -9  -2  -3  129.99   25.30
   9   2  -3  165.28   22.90
   9  -2   3  192.58   22.10
   9  -2   3  217.88   29.70
  -9   2   3  144.59   25.70
  -9  -2  -3  138.69   22.10
   9   2  -3  125.39   23.10
   9  -2  -3  154.58   27.40
   9   2   3  161.78   23.40
  -9  -2   3  133.29   27.00
   9   2   3  175.48   28.30
  -9   2  -3  162.08   25.50
  -9  -2   3  194.78   27.70
   9   3  -3  123.89   22.20
  -9   3   3   78.29   24.50
  -9  -3  -3  111.19   43.30
   9  -3   3   94.69   21.70
  -9  -3  -3  130.49   24.30
  -9  -3  -3   99.09   40.20
   9  -3   3   56.29   23.60
   9  -3  -3   85.69   24.50
  -9   3  -3   76.19   25.80
  -9  -3   3  111.09   23.60
   9   3   3  115.89   24.00
  -9   3  -3   89.89   14.00
   9  -3  -3   71.79   26.80
  -9  -3   3   99.59   28.00
  -9  -4  -3  155.78   33.60
  -9  -4  -3  106.59   17.20
   9  -4   3   41.30   35.00
  -9   4   3  128.89   58.19
  -9  -4  -3  167.68   40.90
  -9  -4  -3  162.68   39.60
   9   4  -3  155.78   27.90
   9  -4   3  118.19   26.50
   9  -4  -3  132.69   38.10
  -9  -4   3   68.49   42.90
   9   4   3  131.89   40.50
  -9  -4   3  117.29   30.20
  -9   4  -3   79.39   38.10
   9  -4  -3  108.99   29.60
  -9   0  -4   -7.40   11.50
   9   0  -4    2.30   11.00
   9   0   4  -10.40    9.90
  -9   0   4   -6.30   11.90
   9   0  -4    6.00    9.60
  -9   0   4   -7.50   12.00
   9   0   4   -1.30   12.70
  -9  -1  -4  764.62   58.99
   9  -1   4  647.24   57.49
   9   1  -4  734.13   58.59
  -9   1   4  833.92   67.69
   9  -1   4  790.52   62.89
   9   1  -4  764.72   64.29
  -9  -1  -4  719.33   64.39
  -9  -1   4  848.22   59.89
   9  -1  -4  744.43   58.79
  -9  -1   4  908.31   66.99
   9   1   4  754.82   58.89
   9   1   4  787.22   64.39
  -9   1  -4  690.13   62.99
   9  -1  -4  758.12   64.69
  -9  -2  -4   35.40   17.20
  -9  -2  -4   34.10   18.80
   9   2  -4   49.60   17.50
   9  -2   4   47.20   14.90
   9   2  -4   58.79   17.10
  -9   2   4   25.80   20.50
   9  -2   4   16.90   15.20
  -9  -2   4   21.10   25.10
   9  -2  -4   53.29   20.30
  -9  -2   4   48.10   21.60
  -9   2  -4   31.20   14.30
  -9   2  -4   47.10   18.20
   9   2   4   42.90   17.70
   9   2   4   29.80   17.80
  -9  -3  -4  123.89   30.00
   9  -3   4  128.29   22.80
  -9   3   4  168.78   35.00
   9  -3   4   99.69   27.90
   9  -3   4  155.78   25.20
   9   3  -4  195.18   27.30
  -9  -3  -4  108.49   27.80
  -9  -3  -4  138.99   21.30
  -9  -3  -4  199.68   29.40
  -9   3  -4  158.78   22.10
   9  -3  -4  119.69   26.40
   9  -3  -4   99.29   29.30
  -9   3  -4  121.09   26.50
  -9  -3   4  166.98   26.30
   9   3   4  190.48   29.20
  -9  -4  -4  -17.50   31.40
  -9  -4  -4   28.40   14.20
  -9   4   4   39.30   38.80
   9  -4   4  -10.60   33.50
  -9  -4  -4   98.49   31.70
   9   4  -4   42.30   23.10
  -9  -4  -4   -3.30   30.30
   9  -4   4   51.09   22.90
   9  -4  -4   76.89   33.30
   9   4   4   51.99   30.40
  -9   4  -4   28.50   28.30
  -9  -4   4   42.50   29.30
   9  -4  -4   50.19   27.60
  -9  -4   4   68.69   36.90
  -9   0  -5   -7.60   11.30
   9   0  -5    2.60   11.40
  -9   0  -5   -5.50   12.70
  -9   0   5   -6.90   14.60
   9   0  -5    2.60   10.70
   9   0   5   -5.30   10.90
   9   0   5   -4.50   11.80
   9   1  -5  881.21   64.09
   9   1  -5  832.42   72.99
  -9  -1  -5  827.22   64.39
   9  -1   5  868.91   63.39
   9  -1   5  873.31   68.29
  -9   1   5  842.22   72.79
  -9  -1  -5  838.22   70.19
  -9  -1   5  770.92   64.59
   9   1   5  787.62   63.99
   9  -1  -5  860.51   64.39
   9   1   5  794.72   69.19
   9  -1  -5  853.01   70.29
  -9  -1   5  945.71   72.29
  -9   1  -5  788.52   68.19
  -9   2   5   96.49   28.90
   9  -2   5  118.79   22.90
   9   2  -5  170.18   25.60
   9  -2   5  128.59   20.60
  -9  -2  -5  155.38   22.70
  -9  -2  -5  124.99   25.60
  -9   2  -5  151.58   19.00
  -9   2  -5  124.39   22.30
   9   2   5  181.48   23.80
  -9  -2   5  185.18   24.70
  -9  -2   5  147.59   29.20
   9  -2  -5  142.69   27.60
  -9  -3  -5  142.29   31.30
  -9  -3  -5  166.28   27.40
   9  -3   5  111.89   22.60
   9  -3   5  105.29   21.30
   9   3  -5  144.89   23.50
  -9  -3  -5  135.69   20.50
  -9   3   5  144.79   34.30
  -9  -3  -5  119.99   31.80
   9  -3   5   92.49   27.10
  -9  -3   5  128.49   31.70
   9  -3  -5  133.99   27.50
   9   3   5  125.09   25.60
  -9   3  -5  109.09   41.70
   9  -3  -5  107.59   30.00
  -9   3  -5   87.99   16.00
  -9  -3   5  130.09   26.30
  -9  -4  -5   67.29   15.90
  -9  -4  -5   86.69   39.90
  -9  -4  -5   59.49   39.50
  -9   4   5   66.39   34.90
   9  -4   5  -21.00   39.00
   9  -4   5   58.09   23.60
  -9  -4  -5  125.09   34.10
   9   4  -5   87.29   23.90
   9  -4  -5   85.19   27.60
   9  -4  -5   16.90   32.00
   9   4   5   99.99   32.50
  -9   4  -5   66.19   38.60
  -9  -4   5   53.69   32.20
   9   0   6   -1.30   11.30
  -9   0  -6  -13.00   14.40
  -9   0  -6   -2.00   12.70
  -9   0  -6  -15.70   13.40
  -9   0   6  -10.20   17.10
   9   0   6  -10.20   12.60
   9   0  -6    2.10   11.70
  -9  -1  -6  832.72   68.39
   9   1  -6 1005.60   68.49
  -9   1   6  882.21   76.39
   9   1  -6 1018.00   74.69
   9  -1   6  882.01   67.49
   9  -1   6  872.41   71.99
  -9  -1  -6  989.50   71.49
  -9  -1   6  883.51   69.29
  -9  -1   6  931.51   76.19
   9  -1  -6  789.02   78.19
   9  -1  -6  869.01   68.69
  -9   1  -6  895.91   70.09
   9   1   6  838.52   68.29
   9   1   6  810.72   73.09
  -9   1  -6 1030.80   81.29
  -9  -2  -6   32.20   19.80
  -9  -2  -6   32.80   18.30
  -9  -2  -6   49.80   19.00
   9   2  -6   54.59   18.70
   9   2  -6   91.29   20.00
   9  -2   6   68.39   15.50
  -9   2   6   32.70   21.30
   9  -2   6   17.20   15.30
  -9  -2   6   37.30   18.70
  -9  -2   6   47.50   20.90
   9  -2  -6   60.79   22.10
   9   2   6   37.50   18.80
  -9   2  -6   38.90   16.10
  -9   2  -6   16.60   13.80
  -9  -3  -6  192.28   39.70
   9  -3   6  120.29   30.30
   9  -3   6  208.88   26.70
  -9  -3  -6  235.58   34.10
  -9  -3  -6  222.48   32.60
  -9  -3  -6  157.48   32.50
  -9   3   6  169.88   37.80
   9  -3   6  204.88   28.60
   9   3  -6  201.38   27.50
  -9   3  -6  164.28   28.70
  -9   3  -6  213.58   27.20
   9  -3  -6  207.48   31.10
  -9  -3   6  236.28   39.40
  -9  -3   6  247.08   33.90
   9   3   6  240.38   33.00
   9  -4   6   11.80   26.70
  -9  -4  -6   39.30   33.00
  -9  -4  -6   31.70   17.70
  -9  -4  -6  -14.70   35.50
  -9  -4  -6  -11.20   33.20
   9   4  -6   40.60   24.90
  -9   4   6   34.10   38.90
   9  -4   6   22.90   20.80
   9   4   6   45.20   27.90
   9  -4  -6   49.50   28.70
  -9   0  -7  -13.00   14.70
  -9   0   7    1.60   18.90
   9   0   7   -6.70   12.50
  -9   0  -7   -2.90   12.20
   9   0  -7   -2.10   12.10
   9   0   7    1.20   11.20
   9   0  -7   -0.70   11.50
  -9   0  -7  -10.10   14.60
   9   1  -7  618.74   47.50
   9  -1   7  565.64   46.20
  -9  -1  -7  548.45   48.00
  -9  -1  -7  551.14   51.39
  -9  -1  -7  576.24   54.69
   9   1  -7  591.74   53.39
  -9   1   7  609.04   57.79
   9  -1   7  634.14   51.49
  -9  -1   7  678.83   57.49
  -9   1  -7  584.14   51.19
   9   1   7  615.84   53.39
  -9   1  -7  581.74   51.49
   9   1   7  612.74   48.40
   9  -1  -7  498.35   54.59
   9  -1  -7  599.54   48.20
   9   2  -7  157.08   25.60
   9  -2   7  183.98   29.30
  -9  -2  -7  175.58   26.80
   9   2  -7  146.19   23.40
   9  -2   7  167.18   20.50
  -9   2   7  181.18   33.30
  -9  -2  -7   95.09   24.80
  -9   2  -7  128.69   20.20
   9   2   7  195.18   25.90
  -9  -2   7  152.68   25.40
   9  -2  -7  126.19   28.20
  -9  -2   7  139.59   28.40
  -9   2  -7  158.88   27.50
   9  -2  -7  166.68   26.00
   9  -3   7   60.79   19.50
   9  -3   7   58.79   17.30
  -9  -3  -7   50.29   26.60
  -9  -3  -7   87.69   26.60
  -9  -3  -7   47.00   18.10
  -9  -3  -7   66.99   26.30
  -9   3   7   49.80   26.10
   9   3  -7  100.49   20.90
   9  -3   7   86.69   26.00
  -9  -3   7  103.99   26.50
   9   3   7   71.69   25.60
  -9   3  -7   24.00   20.40
   9  -3  -7   90.89   31.50
   9  -3  -7   43.00   25.30
  -9   0   8   -6.80   18.20
  -9   0  -8   -5.30   14.70
   9   0  -8   -0.70   12.60
   9   0   8    2.00   12.10
   9   0  -8   10.90   13.10
   9   0   8   -6.60   12.10
  -9   0  -8    0.50   12.60
  -9  -1  -8  233.28   34.00
   9   1  -8  242.08   31.30
  -9   1   8  170.78   31.00
  -9  -1  -8  225.18   32.30
   9   1  -8  261.97   25.30
   9  -1   8  227.08   27.50
  -9  -1  -8  264.97   27.50
   9  -1   8  177.68   22.80
  -9   1  -8  235.28   29.30
   9  -1  -8  236.28   35.50
   9  -1  -8  248.78   26.30
  -9  -1   8  246.28   27.80
  -9   1  -8  134.29   38.00
   9   1   8  232.68   27.00
  -9  -1   8  206.68   36.30
  -9  -2  -8  -14.50   19.10
   9  -2   8    7.50   12.60
   9  -2   8  -24.50   15.20
  -9  -2  -8    9.00   19.60
  -9   2   8  -12.60   21.60
  -9  -2  -8   -4.20   17.00
  -9  -2  -8  -13.30   19.60
   9   2  -8    4.10   15.10
  -9   2  -8    4.90   14.70
   9  -2  -8    8.30   20.50
   9  -2  -8  -20.10   20.40
   9  -2  -8   13.70   17.90
  -9  -2   8   -6.80   20.90
  -9  -2   8   14.40   19.50
   9   2   8   -4.80   19.30
   9  -3   8   59.99   18.50
  -9  -3  -8   31.00   18.70
   9  -3   8   70.89   37.90
  -9  -3  -8   76.19   27.40
   9  -3   8   56.89   15.90
  -9  -3  -8   45.20   28.30
   9   3  -8   70.79   18.70
  -9  -3  -8    8.90   32.80
  -9   3  -8   90.79   25.90
   9  -3  -8   38.30   25.80
  -9  -3   8   84.79   27.10
   9   3   8   82.19   26.50
   9  -3  -8   76.69   31.30
   9   0   9    9.70   12.20
   9   0  -9   -5.40   13.70
   9   0   9   -0.40   12.70
  -9   0   9   -6.60   20.20
  -9   0  -9   -3.80   12.80
  -9   0  -9    2.40   16.50
  -9   0  -9   -7.20   15.60
   9  -1   9  221.38   24.10
  -9   1   9  234.68   40.10
   9  -1   9  211.48   27.40
  -9  -1  -9  222.78   34.70
   9   1  -9  306.77   29.10
  -9  -1  -9  277.47   36.20
  -9  -1  -9  244.08   27.80
   9   1  -9  313.97   33.40
  -9   1  -9  249.38   30.00
   9  -1  -9  267.27   38.40
  -9  -1   9  196.08   28.80
  -9   1  -9  253.37   32.10
   9   1   9  207.08   27.10
   9  -1  -9  289.17   28.70
  -9  -1   9  235.88   40.70
  -9  -2  -9   92.39   22.30
   9  -2   9   85.49   25.00
   9   2  -9  123.79   19.40
  -9  -2  -9   81.09   26.10
  -9  -2  -9  112.59   23.40
  -9  -2  -9   77.59   32.90
   9  -2   9  105.09   15.60
  -9   2   9   75.79   26.20
   9   2  -9  136.29   23.00
  -9   2  -9   81.69   20.00
   9  -2  -9   96.59   25.60
  -9  -2   9  107.79   23.20
   9   2   9  122.99   24.10
  -9  -2   9   84.09   26.20
   9  -2  -9  110.39   27.90
   9  -2  -9   74.39   21.70
  -9  -3  -9    9.70   26.90
   9  -3   9   11.40   14.40
   9  -3   9   10.20   13.80
   9   3  -9   23.90   16.40
  -9  -3  -9    5.60   18.60
  -9   3   9    0.50   27.50
   9  -3   9   -8.10   20.00
  -9  -3  -9    3.40   26.40
   9  -3  -9   41.10   29.10
   9  -3  -9    8.50   25.20
  -9  -3   9   32.80   27.90
   9   3   9    7.40   24.80
  -9   3  -9  -18.60   18.20
   9   0  10  -11.70   12.40
  -9   0 -10    6.90   16.10
   9   0 -10   -6.70   13.40
   9   0 -10   -3.40   13.10
  -9   0  10  -48.70   33.10
  -9   0 -10   -0.60   12.60
  -9   0 -10  -10.50   16.50
  -9  -1 -10  209.28   27.90
  -9  -1 -10  255.07   36.10
   9   1 -10  246.88   26.30
  -9   1  10  187.68   54.39
   9  -1  10  259.47   22.90
   9   1 -10  242.68   38.60
  -9  -1 -10  171.88   28.00
  -9   1 -10  209.18   32.80
   9   1  10  287.07   28.40
   9  -1 -10  232.98   38.20
  -9  -1  10  261.17   41.30
   9  -1 -10  244.48   29.20
   9   2 -10   34.10   15.70
  -9  -2 -10   43.70   21.70
   9  -2  10   29.50   11.40
  -9  -2 -10   35.70   22.10
  -9   2  10   36.50   29.60
   9  -2  10   60.39   12.50
  -9  -2 -10   24.40   21.30
  -9  -2 -10   39.20   20.80
   9  -2 -10   49.40   26.30
  -9  -2  10   38.20   21.20
  -9   2 -10   28.80   18.60
   9   2  10   27.90   21.60
   9  -2 -10    9.10   19.70
   9  -2 -10    4.90   21.70
  -9  -3 -10   63.59   29.30
  -9  -3 -10  -15.40   22.80
   9   3 -10   48.40   16.80
   9  -3  10   31.00   12.60
  -9  -3  10   99.89   32.90
   9   3  10   82.59   28.30
   9  -3 -10   72.59   27.60
  -9   0  11   23.20   22.30
   9   0  11    5.00   12.40
  -9   0 -11   -3.70   16.20
   9   0 -11  -12.70   15.20
  -9   0 -11    8.50   13.50
  -9   0 -11    8.90   18.10
   9   0 -11    9.70   14.70
   9   1 -11  243.08   25.70
   9   1 -11  257.37   31.90
  -9  -1 -11  176.58   28.50
  -9  -1 -11  247.58   35.60
  -9  -1 -11  209.78   34.80
  -9  -1 -11  264.57   34.50
   9  -1  11  213.38   19.70
  -9   1  11  180.78   32.90
   9  -1 -11  194.08   28.50
   9   1  11  283.67   36.40
  -9   1 -11  216.78   33.90
  -9  -1  11  134.69   35.60
   9  -1 -11  224.28   39.00
   9   2 -11   33.30   15.20
  -9  -2 -11   43.30   22.10
   9  -2  11   54.39    7.70
   9  -2  11   38.60    7.90
  -9  -2 -11   39.50   22.70
  -9  -2 -11   59.59   22.40
   9  -2 -11   50.59   22.10
   9   2  11   40.50   22.90
  -9  -2  11   38.20   21.40
   9  -2 -11   47.60   28.10
   9   0 -12   -1.30   15.30
  -9   0 -12   10.60   19.10
  -9   0 -12    0.60   11.10
   9   0  12   -8.50   11.40
  -9   0 -12   -2.80   15.60
  -9  -1 -12  284.87   37.90
   9   1 -12  235.98   25.40
  -9  -1 -12  198.58   29.80
   9  -1  12  234.28   17.40
  -9  -1 -12  161.88   26.70
   9   1  12  221.18   32.00
   9  -1 -12  171.28   28.80
  -9   1 -12  231.08   36.00
   9  -1 -12  231.08   29.90
  -9  -2 -12   -5.40   21.80
   9   2 -12    4.10   13.60
  -9  -2 -12   -8.90   33.10
   9  -2 -12    5.40   22.30
   9  -2 -12   17.30   38.50
   9   2  12   43.40   22.90
   9   0  13   13.70   11.40
   9   0 -13   -2.00   15.50
  -9  -1 -13   95.39   27.10
  -9  -1 -13   99.39   20.30
   9   1 -13  131.79   18.40
   9  -1 -13   82.69   20.50
   9  -1 -13  105.69   22.70
   9   1  13  163.28   23.70
   9   2 -13   12.90   12.10
  -9  -2 -13   19.40   22.00
   9   2  13   24.10   22.90
   9  -2 -13   20.30   22.80
   9   0 -14   -0.50   16.80
   9   0 -14   10.00   12.20
  -9  -1 -14   80.09   26.80
   9   1 -14  120.29   17.40
   9  -1 -14  103.29   20.80
   9   1  14  153.88   23.20
  10   0   0 2327.57  170.08
 -10   0   0 2202.18  170.18
 -10   0   0 2268.67  165.08
  10   0   0 2352.66  164.98
 -10  -1   0   62.29   20.80
 -10  -1   0   73.89   17.10
  10   1   0   84.69   17.90
  10  -1   0   75.69   18.00
 -10   1   0   84.69   21.60
  10  -1   0   82.79   15.60
  10   1   0   86.29   20.40
  10   2   0 1091.49   80.49
  10  -2   0  739.43   78.09
 -10   2   0  924.81   78.89
 -10  -2   0  917.61   71.89
 -10  -2   0  984.60   81.09
  10  -2   0  978.50   71.69
  10   2   0  892.91   71.89
 -10  -3   0   45.80   24.10
 -10  -3   0   75.39   22.80
  10   3   0   32.50   20.20
  10  -3   0   -0.40   27.40
  10  -3   0  -12.00   20.30
 -10   3   0   31.40   26.30
 -10  -4   0   45.30   29.50
  10   4   0   53.69   26.10
  10  -4   0  -30.30   32.50
 -10  -4   0   43.70   45.60
 -10  -4   0  -18.40   33.60
  10  -4   0   62.19   25.70
  10   0  -1  195.58   23.40
 -10   0   1  223.48   31.20
  10   0   1  247.68   29.60
  10   0   1  255.27   24.90
 -10   0  -1  206.38   31.30
  10   0  -1  218.98   28.80
 -10   0   1  284.47   25.40
 -10   0  -1  200.28   24.20
  10   1  -1  143.29   20.30
 -10  -1  -1  133.19   19.30
  10   1  -1  111.49   21.30
  10  -1   1   95.89   18.90
 -10  -1  -1  134.19   24.20
 -10   1   1  118.09   23.70
  10  -1   1  106.79   17.50
  10   1   1  156.58   20.40
  10  -1  -1  133.59   18.50
  10  -1  -1  115.49   20.80
 -10  -1   1  123.69   22.20
 -10  -1   1  118.69   19.10
  10   1   1   98.79   18.50
 -10   1  -1  105.69   23.20
  10   2  -1  342.87   38.30
  10   2  -1  318.37   31.90
 -10  -2  -1  304.57   32.60
 -10   2   1  263.67   39.90
  10  -2   1  339.27   31.50
 -10  -2  -1  308.57   42.20
  10  -2   1  259.47   37.20
 -10   2  -1  312.27   39.50
  10  -2  -1  335.97   31.10
  10  -2  -1  305.57   39.40
  10   2   1  261.97   37.90
  10   2   1  287.57   32.40
 -10  -2   1  329.87   40.40
  10   3  -1  247.88   32.60
 -10  -3  -1  273.07   34.00
  10  -3   1  203.58   36.20
 -10  -3  -1  236.98   38.80
  10  -3   1  284.67   34.30
 -10   3   1  295.77   45.50
  10  -3  -1  210.78   34.50
 -10  -3   1  350.46   49.70
  10   3   1  348.87   34.00
 -10   3  -1  242.08   42.40
  10  -3  -1  185.08   37.50
 -10  -3   1  325.57   34.00
  10  -4   1   -5.30   23.20
 -10  -4  -1   41.80   29.70
  10   4  -1   28.90   23.90
  10  -4   1  -12.90   32.50
 -10   4   1  -26.30   36.60
 -10  -4  -1  -23.90   31.90
 -10  -4   1   28.20   28.90
 -10   4  -1   59.59   43.50
 -10  -4   1  -37.80   29.30
  10  -4  -1   24.20   25.30
  10  -4  -1    5.20   33.50
  10   4   1   18.10   25.40
 -10   0  -2 1241.48   95.69
 -10   0   2 1079.19   95.89
 -10   0  -2 1309.07   90.49
  10   0   2 1093.89   89.69
  10   0  -2 1389.26   96.39
 -10   0   2 1115.89   90.29
  10   0   2 1119.59   94.89
  10   0  -2 1395.96   90.39
  10   1  -2  118.69   21.80
  10   1  -2  148.99   19.70
  10  -1   2  115.29   17.60
 -10   1   2   98.59   22.30
  10  -1   2   93.99   18.40
 -10  -1  -2  105.29   18.60
 -10  -1  -2  127.19   23.90
  10  -1  -2  108.89   21.10
  10   1   2   88.59   18.70
 -10   1  -2  113.39   23.40
 -10  -1   2   98.79   21.70
  10  -1  -2  145.69   18.70
 -10  -1   2  135.89   19.80
  10   1   2  110.59   19.80
  10  -2   2  213.98   35.30
  10  -2   2  287.07   29.80
 -10   2   2  233.98   39.20
 -10  -2  -2  390.76   42.60
 -10  -2  -2  367.56   32.30
  10   2   2  220.38   31.00
 -10  -2   2  232.78   39.40
  10   2   2  271.27   36.60
  10  -2  -2  304.47   38.50
 -10  -2   2  280.07   35.30
 -10   2  -2  304.67   37.70
  10   3  -2   55.19   21.30
  10  -3   2   26.60   24.40
  10  -3   2   24.10   19.90
 -10  -3  -2   96.29   23.40
 -10  -3  -2   22.00   25.40
  10  -3   2   61.59   22.50
 -10  -3  -2   54.09   25.40
 -10   3   2   46.70   25.70
  10  -3  -2   12.40   22.70
 -10  -3   2   89.99   28.90
 -10   3  -2   49.00   25.20
  10   3   2   76.99   22.80
 -10  -3   2   46.20   22.80
  10  -3  -2   37.60   22.50
 -10  -4  -2   14.50   16.30
  10   4  -2   51.89   24.80
 -10  -4  -2   88.69   31.20
 -10  -4  -2   23.70   34.60
  10  -4   2   16.70   36.00
  10  -4   2   35.30   23.80
 -10  -4  -2   -2.40   34.80
 -10   4   2   -6.60   36.60
  10  -4  -2   25.20   26.80
  10   4   2   77.39   27.70
  10  -4  -2  -41.80   30.80
 -10  -4   2   25.10   37.00
 -10  -4   2   77.69   30.60
 -10   4  -2   57.99   24.90
 -10   0   3  146.39   23.60
 -10   0   3  164.58   20.60
  10   0   3  137.09   22.40
 -10   0  -3  104.49   18.70
  10   0  -3   92.49   17.70
  10   0   3  144.49   19.30
  10   1  -3   54.09   16.00
  10   1  -3   48.30   15.40
  10  -1   3   39.30   13.60
 -10   1   3   57.49   20.60
 -10  -1  -3   45.60   15.80
 -10  -1  -3   25.30   19.00
  10  -1   3   61.49   14.30
 -10  -1   3   36.60   17.90
  10  -1  -3   63.19   18.20
  10  -1  -3   53.29   14.50
  10   1   3   54.59   17.20
  10   1   3   68.39   17.30
 -10  -1   3   57.59   16.00
  10  -2   3   50.59   19.00
 -10  -2  -3   73.89   23.40
 -10  -2  -3   91.69   20.50
  10  -2   3   68.19   16.40
  10   2  -3  103.69   23.70
 -10   2   3   49.70   21.00
  10   2   3   38.10   14.20
  10  -2  -3   96.49   19.60
  10   2   3   51.39   19.50
  10  -2  -3   72.19   21.90
 -10  -2   3   75.69   23.90
 -10  -2   3   70.49   19.00
 -10  -3  -3  310.37   48.10
  10   3  -3  368.46   37.70
  10  -3   3  296.47   35.60
  10  -3   3  395.56   38.00
 -10   3   3  355.46   48.70
 -10  -3  -3  347.57   51.89
 -10  -3  -3  354.06   38.30
 -10  -3   3  307.17   53.99
  10  -3  -3  295.27   39.30
 -10   3  -3  288.37   53.09
  10  -3  -3  312.37   48.60
 -10  -3   3  343.07   38.90
  10   3   3  330.27   38.20
 -10   3  -3  374.16   33.00
  10  -4   3   10.20   44.20
  10   4  -3   -3.00   22.70
 -10  -4  -3   24.90   34.30
  10  -4   3    3.40   22.30
 -10   4   3  -33.70   40.70
 -10  -4  -3   37.30   31.70
 -10  -4  -3    7.30   51.99
 -10  -4  -3   -8.10   15.20
 -10  -4   3   -5.70   47.50
  10  -4  -3   -3.20   52.69
 -10  -4   3  -24.50   39.70
  10   4   3   10.30   25.30
  10  -4  -3   -9.30   24.80
 -10   4  -3   13.10   28.40
 -10   0   4 1529.15  121.29
 -10   0  -4 1611.34  114.69
 -10   0   4 1548.84  115.09
  10   0   4 1534.15  119.39
  10   0   4 1488.35  114.19
  10   0  -4 1564.84  119.89
  10   0  -4 1677.23  114.69
  10  -1   4   62.19   14.80
 -10  -1  -4   62.19   20.00
  10  -1   4   51.29   14.70
 -10   1   4   40.60   20.70
 -10  -1  -4   60.59   16.60
  10   1  -4   59.29   16.10
  10   1  -4   79.19   18.60
  10   1   4   40.10   16.10
  10  -1  -4   59.29   15.70
  10  -1  -4   58.69   18.50
  10   1   4   49.30   17.10
 -10  -1   4   42.00   16.60
 -10   1  -4   60.09   18.30
 -10  -1   4   34.90   17.00
  10  -2   4  607.24   52.69
  10  -2   4  637.04   46.40
  10   2  -4  547.65   47.60
 -10   2   4  583.34   58.29
  10   2  -4  553.04   53.19
 -10  -2  -4  482.35   47.60
 -10  -2  -4  558.84   56.89
  10   2   4  577.24   55.09
  10   2   4  514.55   47.70
  10  -2  -4  518.75   46.60
 -10   2  -4  485.25   51.99
  10  -2  -4  458.45   53.99
 -10  -2   4  617.84   48.20
 -10  -2   4  626.74   59.39
  10  -3   4   53.69   20.70
 -10   3   4   64.59   37.60
 -10  -3  -4  104.69   25.90
 -10  -3  -4   58.59   26.80
  10  -3   4   58.99   21.80
 -10  -3  -4   44.30   19.90
  10   3  -4   86.59   22.40
 -10  -3  -4  111.89   31.70
  10  -3   4   39.30   24.40
  10  -3  -4   63.49   24.70
 -10  -3   4   77.19   25.10
 -10   3  -4   63.59   24.00
  10  -3  -4   44.30   26.00
 -10   3  -4   32.00   14.00
 -10  -3   4  102.89   32.60
  10   3   4   84.59   23.90
  10  -4   4   38.70   22.60
  10  -4   4   57.29   31.20
 -10  -4  -4   91.89   33.50
  10   4  -4   55.69   26.00
 -10   4   4   44.00   39.10
 -10  -4  -4   24.00   28.70
 -10  -4  -4  -24.20   31.10
 -10  -4  -4   20.30   15.80
  10  -4  -4   36.00   28.40
  10   4   4   29.50   28.30
  10   0  -5   77.69   18.80
  10   0  -5  133.29   18.50
 -10   0  -5   91.09   22.00
  10   0   5  135.49   21.70
  10   0   5  150.98   19.30
 -10   0   5  145.49   20.10
 -10   0  -5   91.89   17.80
 -10   1   5  268.57   44.40
  10  -1   5  255.07   30.70
 -10  -1  -5  217.18   34.00
 -10  -1  -5  220.88   26.90
  10   1  -5  210.58   25.20
  10   1  -5  254.87   32.30
  10  -1   5  236.28   24.50
  10   1   5  209.38   26.30
  10   1   5  191.18   30.80
  10  -1  -5  188.78   33.80
 -10  -1   5  257.77   36.60
  10  -1  -5  216.98   25.00
 -10  -1   5  265.37   27.90
 -10   1  -5  186.08   32.40
  10  -2   5   38.00   15.80
  10   2  -5   75.89   19.30
 -10  -2  -5   78.59   20.60
 -10  -2  -5   74.49   22.70
 -10   2   5   18.30   19.80
  10   2  -5   51.99   18.80
  10  -2   5   37.50   27.70
  10   2   5   66.79   20.50
 -10   2  -5   35.50   15.40
  10  -2  -5   77.79   19.40
  10  -2  -5   70.09   23.50
 -10   2  -5   48.10   18.70
 -10  -2   5   41.70   19.70
 -10  -2   5   33.80   23.00
 -10  -3  -5  159.78   34.00
  10  -3   5  239.88   40.60
  10  -3   5  193.08   28.90
 -10  -3  -5  118.49   34.40
 -10  -3  -5  258.17   35.30
  10   3  -5  230.38   30.70
 -10  -3  -5  168.38   36.30
  10  -3   5  241.78   30.50
 -10   3   5  210.68   39.00
 -10   3  -5  310.07   60.59
 -10  -3   5  154.78   38.30
  10  -3  -5  168.88   31.40
 -10   3  -5  190.78   27.50
 -10  -3   5  232.68   34.00
  10   3   5  204.08   30.80
 -10  -4  -5   48.40   33.80
 -10   4   5   35.50   39.30
 -10  -4  -5   96.89   45.20
  10  -4   5   27.30   28.80
  10  -4   5   28.90   27.90
  10   4   5   -8.10   27.40
  10  -4  -5   10.10   34.40
  10  -4  -5    7.00   42.50
  10   0  -6   93.19   20.20
 -10   0  -6  127.19   23.50
 -10   0  -6  126.49   19.10
  10   0  -6  135.69   19.30
  10   0   6  190.88   25.50
  10  -1   6   37.00   14.50
  10  -1   6   24.50   14.60
 -10  -1  -6   29.50   18.50
 -10  -1  -6   51.19   17.00
 -10   1   6   31.40   21.30
  10   1  -6   30.20   16.10
  10   1  -6   64.69   16.30
 -10   1  -6   19.70   17.20
  10  -1  -6   54.49   19.00
  10  -1  -6   44.10   15.50
 -10   1  -6   21.50   20.70
  10   1   6   10.50   13.70
 -10  -1   6  -11.10   16.70
  10   1   6   29.40   16.90
  10  -2   6  306.87   29.90
 -10  -2  -6  286.77   33.10
  10   2  -6  277.97   31.80
 -10  -2  -6  252.57   42.20
  10  -2   6  343.37   37.70
  10   2  -6  291.97   38.40
 -10   2   6  269.37   45.30
  10  -2  -6  247.68   40.90
 -10   2  -6  238.08   33.30
 -10   2  -6  243.88   35.20
 -10  -2   6  347.57   45.90
  10   2   6  264.97   33.00
 -10  -2   6  372.46   35.60
  10  -2  -6  284.67   32.40
  10  -3   6   38.70   19.60
 -10  -3  -6    8.10   26.00
 -10  -3  -6   68.79   26.60
  10  -3   6   29.90   24.80
 -10  -3  -6   18.10   30.70
 -10  -3  -6   -5.80   18.10
  10   3  -6   14.90   19.50
 -10   3   6   39.10   29.40
  10  -3   6   14.80   18.60
  10  -3  -6   15.10   23.70
 -10   3  -6   12.70   14.60
 -10   3  -6  -32.40   20.50
  10  -3  -6   32.60   25.50
 -10  -3   6   14.10   24.10
  10   3   6    4.20   23.00
 -10   0  -7  787.92   70.19
 -10   0   7  909.11   76.59
  10   0  -7  830.72   70.79
  10   0   7  908.01   64.69
 -10   0  -7  700.13   78.09
  10   0  -7  852.91   64.89
  10   1  -7  249.08   35.10
 -10   1   7  135.39   26.90
  10  -1   7  139.69   21.70
 -10  -1  -7  190.78   25.20
  10  -1   7  135.99   22.90
  10   1  -7  152.48   25.40
 -10  -1  -7  165.88   27.00
 -10  -1  -7  134.29   27.10
  10   1   7  135.49   22.20
  10  -1  -7  131.79   27.10
  10  -1  -7  157.68   24.90
  10   1   7  135.59   24.40
 -10  -1   7  171.78   25.70
 -10  -1   7  224.98   35.40
 -10   1  -7  177.18   25.60
 -10   1  -7  155.78   24.60
 -10  -2  -7  132.59   22.80
 -10   2   7  116.59   31.70
  10   2  -7  151.58   22.70
 -10  -2  -7   87.69   25.60
 -10  -2  -7  116.49   24.00
  10  -2   7  176.38   29.30
  10   2  -7  123.99   24.40
 -10  -2  -7  154.08   32.00
  10  -2   7  158.18   21.40
 -10  -2   7  129.79   25.10
  10  -2  -7  102.79   22.30
  10   2   7  140.29   24.70
 -10   2  -7   84.99   21.20
 -10   2  -7   87.09   21.30
 -10  -3  -7   74.69   28.10
  10  -3   7  103.19   20.30
 -10  -3  -7   80.89   21.30
 -10  -3  -7  153.38   30.30
  10  -3   7  126.79   27.80
 -10   3   7   80.49   29.10
 -10  -3  -7  157.98   35.00
  10  -3   7   71.19   28.70
  10   3  -7  168.68   24.30
  10   3   7  153.28   29.20
  10  -3  -7  123.69   29.60
 -10   3  -7   96.19   19.70
 -10   3  -7  107.69   26.10
 -10  -3   7  121.09   29.10
  10  -3  -7   74.09   29.70
 -10   0  -8  855.61   77.39
  10   0  -8  968.70   79.09
 -10   0   8 1083.39   83.69
  10   0   8 1037.70   76.99
  10   0   8  998.80   71.79
  10   0  -8  845.22   75.29
 -10   0  -8  834.32   74.79
  10   1  -8   24.20   15.80
 -10  -1  -8   27.40   20.00
  10  -1   8   15.00   13.30
 -10  -1  -8   -7.90   17.40
 -10  -1  -8   31.50   18.40
 -10   1   8    5.90   21.20
  10   1  -8    6.40   14.60
  10  -1   8   10.90   12.90
  10  -1  -8   26.00   18.20
  10   1   8   10.90   17.40
  10  -1  -8   25.90   16.30
 -10  -1   8   17.00   17.70
  10   1   8   20.10   14.90
 -10  -1   8   -2.80   18.90
 -10   1  -8    9.90   16.30
 -10   1  -8   -0.10   16.10
  10  -2   8  430.16   42.90
 -10  -2  -8  383.36   40.80
  10   2  -8  453.25   37.70
  10  -2   8  382.56   35.20
 -10   2   8  396.96   52.09
  10   2  -8  421.06   44.80
 -10  -2  -8  332.37   48.40
 -10  -2  -8  430.36   44.20
 -10  -2  -8  312.87   49.30
 -10   2  -8  348.97   40.80
 -10  -2   8  439.36   42.40
  10  -2  -8  348.27   48.30
  10   2   8  382.06   39.80
 -10   2  -8  408.66   41.50
 -10  -2   8  441.96   51.49
  10  -2  -8  366.06   38.40
  10  -3   8   38.40   28.20
 -10   3   8  -16.40   32.90
 -10  -3  -8   37.20   19.50
  10  -3   8   28.30   18.30
 -10  -3  -8   37.30   27.70
 -10  -3  -8   86.69   39.90
  10   3  -8    5.20   18.60
  10  -3   8    5.20   15.40
 -10  -3  -8   19.20   27.10
  10   3   8   14.50   25.40
  10  -3  -8  -16.80   24.90
 -10   3  -8  -10.70   24.70
 -10  -3   8   44.80   31.90
 -10   0  -9   72.79   17.00
  10   0  -9   47.60   18.40
  10   0   9   60.69   16.40
  10   0   9   70.79   18.10
  10   0  -9   91.89   17.40
 -10   0  -9   55.79   19.10
 -10   0   9   44.40   25.70
 -10   0  -9   92.29   21.50
 -10  -1  -9   36.60   20.10
 -10  -1  -9   27.70   17.80
 -10   1   9    2.30   21.60
  10  -1   9   10.90   13.10
  10   1  -9   32.60   17.10
  10   1  -9   33.70   15.90
  10  -1   9   11.50   13.80
 -10  -1  -9   -4.40   17.40
 -10  -1   9   37.40   33.10
 -10   1  -9   26.90   16.40
  10   1   9   14.90   18.00
 -10  -1   9    4.10   18.10
  10  -1  -9   16.00   16.80
  10  -1  -9    9.20   19.10
 -10   1  -9   -2.70   17.00
  10  -2   9    4.80   16.50
  10   2  -9    5.00   16.80
 -10   2   9  -16.10   34.60
  10  -2   9    9.80   13.40
 -10  -2  -9    8.30   22.80
  10   2  -9    2.50   17.90
 -10  -2  -9   -9.80   19.70
 -10  -2  -9   14.50   21.80
 -10  -2  -9   35.50   24.80
  10  -2  -9  -16.90   25.50
  10   2   9   -1.40   21.40
 -10   2  -9   16.70   17.80
 -10  -2   9    1.30   22.00
  10  -2  -9   22.40   19.70
  10  -2  -9   -6.40   23.30
  10  -3   9  119.49   25.40
  10  -3   9  155.58   21.10
 -10  -3  -9   61.09   22.40
 -10  -3  -9  111.19   31.30
  10   3  -9  140.99   23.70
  10  -3   9  113.69   19.30
  10  -3  -9   67.79   29.60
 -10  -3   9  158.58   39.70
  10   3   9  169.58   31.90
 -10   0 -10  330.97   42.50
  10   0 -10  415.26   35.30
  10   0  10  322.97   33.30
 -10   0 -10  366.46   33.50
 -10   0  10  342.87   48.40
 -10   0 -10  412.16   42.80
  10   1 -10   -6.40   15.20
 -10  -1 -10    3.20   14.90
 -10  -1 -10   25.60   18.70
 -10  -1 -10   26.60   20.20
 -10   1  10   45.40   24.70
 -10  -1 -10    4.90   19.20
  10   1 -10    7.70   15.00
  10  -1  10   31.60   13.20
  10  -1  10   12.80   12.80
 -10  -1  10   -9.20   23.80
  10  -1 -10   22.40   17.60
  10  -1 -10   -0.70   24.20
  10   1  10   13.60   17.60
 -10   1 -10   14.80   18.20
  10  -2  10  105.79   15.70
 -10  -2 -10  145.69   26.90
 -10   2  10   98.89   33.50
  10  -2  10  105.79   17.00
 -10  -2 -10  101.29   24.90
 -10  -2 -10  103.19   30.60
 -10  -2  10  114.19   26.60
  10   2  10  153.18   27.20
 -10   2 -10  103.49   21.90
  10  -2 -10  112.99   28.60
  10  -2 -10   53.09   26.70
  10  -2 -10   94.69   23.40
  10  -3  10   34.50   13.40
  10   3 -10   -1.50   32.30
 -10  -3 -10   54.99   22.00
 -10  -3 -10    8.10   29.30
  10  -3 -10    8.10   27.20
 -10   3 -10   -9.30   21.40
 -10  -3  10   35.90   29.50
  10   3  10   23.20   27.50
  10   0 -11  171.98   24.50
  10   0 -11  125.49   24.30
 -10   0 -11  132.39   24.60
 -10   0 -11  156.68   23.40
  10   0  11  139.99   21.00
 -10   0  11  130.39   30.40
 -10   0 -11  124.29   23.50
  10  -1  11   34.90   12.10
 -10  -1 -11   29.90   21.40
 -10  -1 -11   48.20   23.60
 -10  -1 -11   31.70   19.50
  10   1 -11   32.10   16.40
 -10   1  11   41.10   34.70
  10  -1 -11   26.10   18.60
  10  -1 -11   33.50   21.30
  10   1  11   38.60   18.90
 -10   1 -11   40.90   20.80
  10   2 -11   63.79   17.40
 -10  -2 -11   10.10   23.30
 -10  -2 -11   29.10   23.30
 -10  -2 -11   60.59   23.80
  10   2  11   65.19   24.70
  10  -2 -11   -0.70   22.50
 -10  -2  11   38.60   24.80
 -10   2 -11   20.40   19.20
  10   0  12  123.59   19.20
  10   0 -12  159.28   22.90
 -10   0 -12   92.19   19.10
 -10   0 -12  121.79   25.20
 -10   0 -12   67.69   21.00
 -10  -1 -12   19.40   22.10
 -10  -1 -12   11.20   23.40
  10   1 -12    7.30   15.60
  10   1  12    2.90   21.80
  10  -1 -12   35.50   19.60
 -10   1 -12    1.30   20.10
 -10  -2 -12   21.10   43.20
 -10  -2 -12   93.59   26.60
  10   2 -12   85.09   18.10
 -10  -2 -12   88.79   25.80
  10  -2 -12   53.89   23.50
  10  -2 -12   78.89   25.80
  10   2  12  116.09   27.10
  10   0 -13   -7.60   17.50
  10   0  13    3.50   12.40
 -10   0 -13    3.60   21.40
 -10  -1 -13   -3.00   27.30
  10   1 -13   24.00   16.10
 -10  -1 -13   18.10   16.50
 -10  -1 -13   14.00   23.60
  10   1  13    7.30   22.20
  10  -1 -13    0.60   20.80
  10   0 -14  152.48   24.80
  10   0  14  188.38   22.00
 -10  -1 -14  -22.30   25.10
 -10  -1 -14   -2.90    4.40
  10   1 -14   -5.10   14.60
  10  -1 -14    2.10   19.00
  10  -1 -14   10.30   16.00
  10   1  14    2.80   18.20
 -11   0   0  -19.30   13.90
 -11   0   0   -7.60   14.20
  11   0   0    6.30   13.10
  11   0   0  -14.20   11.60
  11   1   0   12.90   12.30
  11   1   0   -2.60   15.90
 -11  -1   0   24.00   15.60
 -11   1   0    4.10   18.50
  11  -1   0   21.30   13.20
 -11  -1   0   24.60   18.60
  11  -1   0   23.20   14.00
 -11  -2   0  279.37   30.60
 -11  -2   0  228.88   37.10
 -11   2   0  251.47   40.10
  11  -2   0  194.98   35.20
  11   2   0  283.27   34.50
  11  -2   0  298.57   30.40
  11   2   0  262.07   37.00
  11   3   0   -1.30   21.00
 -11  -3   0   47.50   23.70
  11  -3   0   -9.20   21.30
  11  -3   0   13.40   24.00
 -11  -3   0   32.00   28.00
  11  -3   0   12.70   22.60
 -11   3   0   42.70   26.90
  11   4   0   92.89   28.10
 -11   4   0  -18.10   26.00
 -11  -4   0   17.40   34.00
  11  -4   0  -23.00   45.10
 -11  -4   0  116.79   46.80
 -11   0   1  -14.80   14.50
  11   0   1   -0.30   13.70
  11   0  -1   -0.40   11.60
  11   0  -1    7.80   13.10
 -11   0  -1   -8.60   14.10
 -11   0  -1    2.00   15.30
 -11   0   1   -9.40   14.10
 -11   1   1 1588.44  132.59
  11   1  -1 1601.64  125.39
 -11  -1  -1 1691.33  125.69
  11   1  -1 1672.43  132.19
  11  -1   1 1562.44  129.99
  11  -1   1 1834.92  125.49
 -11  -1  -1 1764.72  132.89
  11  -1  -1 1556.64  130.49
 -11  -1   1 1906.51  126.29
 -11  -1   1 1813.42  132.99
 -11   1  -1 1825.22  143.59
  11  -1  -1 1733.93  125.49
  11   1   1 1694.13  125.79
  11   1   1 1798.52  133.09
 -11  -2  -1   30.40   22.10
  11  -2   1   16.70   17.80
 -11   2   1    8.40   21.40
  11  -2   1   41.20   17.10
  11  -2  -1   31.10   17.50
 -11   2  -1   16.30   18.00
  11   2   1   32.50   19.90
 -11  -2   1   33.80   18.80
  11   2   1   27.60   15.50
 -11  -2   1   -8.50   21.40
  11  -2  -1   18.90   16.40
  11   3  -1  363.16   38.50
  11  -3   1  304.97   38.90
 -11  -3  -1  390.56   55.29
  11  -3   1  297.97   48.50
 -11   3   1  387.16   50.89
  11  -3   1  397.16   39.50
 -11  -3  -1  340.37   39.10
  11  -3  -1  360.36   38.80
  11  -3  -1  266.77   48.20
 -11  -3   1  317.47   54.59
 -11  -3   1  353.16   40.70
  11   3   1  365.06   38.90
  11  -3  -1  310.27   40.10
 -11   3  -1  262.57   46.90
 -11   4   1   31.80   36.10
 -11  -4  -1  -54.19   33.40
 -11  -4  -1   40.80   37.10
  11   4  -1   32.80   28.00
 -11  -4  -1   82.89   35.70
  11  -4  -1   16.30   35.20
  11   4   1   22.10   25.50
 -11  -4   1  -45.50   34.20
 -11   0  -2    1.10   14.30
  11   0  -2    6.30   12.50
 -11   0   2   -6.80   14.20
  11   0   2   11.90   14.10
  11   0  -2   -3.90   13.20
 -11   0   2   -2.70   15.00
 -11   0  -2    2.30   15.80
  11   0   2    0.10   13.20
  11   1  -2   94.69   21.90
 -11  -1  -2  126.59   21.40
 -11   1   2  167.48   28.10
 -11  -1  -2  151.08   27.50
  11  -1   2  168.68   21.10
  11  -1   2  178.08   27.00
  11   1  -2  140.39   21.70
  11  -1  -2  135.99   20.50
  11   1   2  208.68   24.00
  11   1   2  140.59   23.90
  11  -1  -2  108.19   23.10
 -11   1  -2  121.69   24.50
 -11  -1   2  139.19   27.60
 -11  -1   2  187.18   24.30
  11   2  -2  230.78   28.40
 -11  -2  -2  204.88   31.00
 -11   2   2  192.98   34.50
  11   2  -2  263.17   36.80
 -11  -2  -2  226.28   40.50
  11  -2   2  225.98   27.60
 -11  -2   2  147.89   26.10
 -11   2  -2  230.08   37.10
 -11  -2   2  187.78   34.30
  11   2   2  203.98   28.80
  11  -2  -2  209.98   37.00
  11  -2  -2  247.48   28.20
 -11  -3  -2   43.70   27.10
  11  -3   2   11.30   21.10
 -11  -3  -2   86.59   24.60
  11  -3   2   32.10   21.70
  11  -3   2   26.50   25.70
 -11   3   2   30.50   24.40
  11   3  -2    7.20   21.20
  11  -3  -2   52.39   25.30
 -11  -3   2   22.30   29.20
  11   3   2   23.40   22.90
  11  -3  -2   19.50   23.20
  11  -3  -2   45.70   23.90
 -11  -3   2   39.30   24.10
 -11  -4  -2  111.69   23.20
 -11  -4  -2   43.90   36.90
 -11   4   2  119.39   46.30
 -11  -4  -2   41.70   35.10
  11  -4   2  131.79   33.50
 -11  -4  -2  180.78   36.40
  11   4   2   96.39   30.00
  11  -4  -2  104.69   37.90
  11   0   3    1.90   14.30
 -11   0   3    4.80   15.70
  11   0  -3   10.60   13.80
 -11   0  -3   -9.40   14.50
 -11   0  -3   -9.70   15.60
 -11   0   3   -7.80   14.30
  11   0  -3    0.20   10.50
  11   0   3   -2.10   12.70
  11   1  -3 1297.17   99.49
  11   1  -3 1301.17  105.89
 -11  -1  -3 1394.36  107.09
 -11  -1  -3 1311.87   99.49
 -11   1   3 1379.46  108.89
  11  -1   3 1422.76  104.79
  11  -1  -3 1266.17  105.29
  11   1   3 1396.36  100.19
  11   1   3 1471.65  111.39
 -11   1  -3 1128.49  104.59
 -11  -1   3 1372.36  116.19
  11  -1  -3 1366.26   99.49
  11  -2   3   -3.20   16.60
  11   2  -3    7.50   17.90
 -11  -2  -3   24.60   22.20
  11   2  -3   16.30   16.50
  11  -2   3   27.40   16.20
 -11   2   3   18.30   23.40
 -11  -2  -3   28.80   20.20
  11   2   3   -4.70   19.10
  11  -2  -3   18.30   18.30
  11   2   3   14.70   16.90
 -11  -2   3   33.40   18.80
 -11  -2   3   -1.40   22.50
  11  -2  -3    6.10   17.40
 -11  -3  -3  123.59   32.30
  11   3  -3  176.48   27.30
 -11  -3  -3  129.59   28.40
  11  -3   3  104.29   24.30
 -11   3   3  169.98   34.40
  11  -3   3  120.39   25.80
  11   3  -3  140.89   42.10
 -11  -3  -3  155.78   37.00
  11  -3   3   78.89   26.40
  11   3   3  175.88   28.70
 -11   3  -3  117.99   19.00
 -11  -3   3  167.98   43.30
 -11  -3   3  130.49   28.10
  11  -3  -3  101.59   28.30
  11  -3  -3  122.79   30.10
 -11   4   3  -26.80   39.80
 -11  -4  -3   10.40   25.10
 -11  -4  -3   86.29   34.50
  11  -4   3   36.90   33.60
  11   4   3    4.50   26.80
  11  -4  -3   33.90   34.90
 -11   0   4   -7.90   14.60
  11   0  -4   20.30   13.50
 -11   0  -4   -0.70   15.90
  11   0  -4   10.00   12.30
  11   0   4    3.10   14.30
  11   0   4    0.90   11.80
 -11   0  -4  -13.70   14.60
 -11   0   4  -12.10   16.60
 -11  -1  -4  182.18   31.10
  11   1  -4  190.28   23.00
  11  -1   4  167.38   21.80
  11   1  -4  178.08   29.50
  11  -1   4  177.48   27.70
 -11   1   4  130.99   28.80
 -11  -1  -4  186.48   25.50
  11  -1  -4  161.88   22.70
  11   1   4  188.88   25.00
  11   1   4  159.08   28.40
 -11   1  -4  128.39   25.70
 -11  -1   4  145.69   26.80
  11  -1  -4  149.79   26.40
 -11  -1   4  157.58   24.30
  11   2  -4   60.79   20.50
 -11   2   4   29.40   21.80
  11   2  -4   56.99   20.00
  11  -2   4   56.79   18.00
 -11  -2  -4   59.19   23.80
  11  -2   4   46.30   20.00
 -11  -2  -4   60.49   21.00
  11   2   4   59.49   21.70
  11  -2  -4   60.19   19.60
  11  -2  -4    2.30   19.10
 -11  -2   4   53.49   20.60
  11   2   4   52.89   18.60
 -11  -2   4   40.50   25.20
 -11   2  -4   35.70   19.80
  11   3  -4   15.30   21.60
  11  -3   4   48.00   22.10
 -11   3   4   22.90   22.60
 -11  -3  -4   12.60   28.90
 -11  -3  -4    4.60   36.20
 -11  -3  -4   23.50   24.10
  11  -3   4   31.00   24.60
  11  -3   4    5.70   19.70
  11   3  -4   30.20   21.50
  11  -3  -4  106.59   45.50
 -11   3  -4    3.90   13.80
  11  -3  -4    0.90   23.90
 -11  -3   4   20.60   32.50
 -11  -3   4   47.40   24.80
  11   3   4   32.30   23.40
 -11   3  -4    9.30   22.70
  11   0  -5    9.00   13.50
 -11   0   5   -4.30   15.00
  11   0   5   -5.30   14.20
  11   0   5   -8.40   14.40
 -11   0   5  -12.80   19.50
 -11   0  -5   -3.50   22.60
 -11   0  -5   13.70   15.20
 -11  -1  -5 2021.20  150.38
 -11  -1  -5 1846.72  143.09
  11   1  -5 2152.68  143.59
  11   1  -5 2086.69  150.48
 -11   1   5 1979.00  154.18
  11  -1   5 1965.40  147.89
  11  -1   5 1918.41  142.59
  11   1   5 1769.02  143.19
 -11   1  -5 1827.22  147.99
  11   1   5 1787.02  149.39
  11  -1  -5 1798.52  149.29
  11  -1  -5 1982.20  143.49
 -11  -1   5 2262.67  145.09
 -11  -1   5 2131.69  151.98
  11   2  -5   -4.30   15.00
 -11   2   5   -3.80   20.50
  11  -2   5   22.10   16.40
 -11  -2  -5   -1.80   21.20
  11  -2   5    6.10   30.40
  11   2  -5    1.50   17.80
 -11  -2  -5   18.90   20.80
 -11   2  -5  -17.90   16.30
 -11  -2   5   21.30   24.20
  11   2   5    8.20   19.70
 -11   2  -5  -18.10   16.60
  11   2   5   12.30   20.10
  11  -2  -5   29.20   27.60
 -11  -2   5  -19.80   19.50
  11  -2  -5   10.70   18.60
 -11   3   5  296.57   50.39
  11  -3   5  230.38   32.30
 -11  -3  -5  287.17   39.00
  11  -3   5  273.77   34.30
 -11  -3  -5  264.37   43.10
  11   3  -5  314.77   45.50
 -11  -3  -5  244.58   38.80
  11   3  -5  311.57   35.90
  11  -3   5  320.67   47.90
 -11  -3  -5  238.38   47.70
 -11  -3   5  266.57   38.90
  11  -3  -5  207.18   36.60
  11   3   5  272.27   37.80
 -11   3  -5  354.46   58.79
 -11   3  -5  301.97   32.20
  11   0   6    5.00   16.10
 -11   0   6    0.20   21.30
  11   0  -6    0.90   14.00
 -11   0  -6    1.90   17.30
  11   0   6   -5.50   14.10
 -11   0  -6  -11.90   14.80
  11   0  -6    0.90   13.70
 -11  -1  -6  156.28   28.20
  11  -1   6  198.08   25.80
  11  -1   6  163.88   28.80
  11   1  -6  152.68   26.40
  11   1  -6  204.78   29.40
 -11   1   6  145.89   30.10
 -11  -1  -6  159.98   25.20
  11  -1  -6  108.39   25.20
 -11   1  -6  136.49   26.40
 -11   1  -6  135.49   25.10
  11   1   6  112.19   23.40
  11   1   6  145.49   24.00
 -11  -1   6  214.98   26.30
  11  -1  -6  145.19   23.10
 -11  -1   6  110.79   26.00
  11  -2   6  132.49   23.00
  11  -2   6  161.08   28.10
  11   2  -6  124.89   22.80
 -11  -2  -6  118.69   24.10
 -11  -2  -6  101.69   24.80
 -11   2   6  111.19   25.90
  11   2  -6  106.69   25.40
 -11  -2  -6  118.89   28.10
  11   2   6  117.89   25.20
  11  -2  -6   64.89   23.10
 -11  -2   6  131.79   25.80
 -11   2  -6   81.79   23.00
  11  -2  -6   75.79   21.70
 -11   2  -6   84.99   21.80
 -11  -2   6  128.19   32.20
 -11  -3  -6   43.30   27.50
 -11  -3  -6   55.39   29.50
  11  -3   6   47.20   20.10
 -11  -3  -6   11.50   34.10
  11   3  -6   23.00   21.50
  11  -3   6   58.19   26.80
 -11   3   6   28.00   24.30
 -11  -3  -6  -26.70   20.20
  11  -3   6   26.60   19.10
  11   3   6   38.30   26.20
  11  -3  -6    2.50   25.00
 -11  -3   6   39.80   27.70
  11  -3  -6   17.20   25.90
 -11   3  -6    9.50   16.00
  11  -3  -6   17.40   24.50
 -11   3  -6   20.50   24.00
  11   0  -7   -5.80   14.00
  11   0  -7    7.90   14.60
 -11   0  -7   12.70   18.80
 -11   0  -7    7.70   16.20
  11   0   7    1.60   14.50
  11   0   7  -11.60   16.10
 -11   0   7   -9.20   23.20
 -11   0  -7    4.30   18.50
 -11   1   7  534.35   59.59
  11   1  -7  581.14   54.49
  11  -1   7  599.34   46.50
 -11  -1  -7  489.65   47.90
  11   1  -7  576.74   47.20
  11  -1   7  601.34   52.19
 -11  -1  -7  564.24   52.29
 -11  -1   7  641.54   50.39
  11  -1  -7  461.75   54.79
 -11   1  -7  522.85   53.09
 -11  -1   7  702.63   61.29
  11   1   7  522.05   47.90
  11   1   7  529.05   53.29
  11  -1  -7  532.55   47.20
 -11   1  -7  551.04   52.59
 -11  -2  -7   -2.10   19.30
  11  -2   7   35.00   15.80
  11   2  -7    7.30   18.20
 -11   2   7   13.40   23.80
  11   2  -7   12.80   18.30
 -11  -2  -7   21.80   22.40
  11  -2   7   18.70   18.50
 -11  -2  -7   31.50   35.80
  11  -2  -7   26.70   19.30
 -11  -2   7   27.90   22.30
 -11  -2   7   23.00   25.60
  11   2   7   16.30   21.40
 -11   2  -7  -11.10   16.30
  11  -2  -7    0.00   20.20
 -11   2  -7  -16.80   17.20
 -11  -3  -7  102.49   30.50
 -11  -3  -7   81.49   22.60
  11  -3   7  100.69   21.40
  11  -3   7  119.99   29.20
 -11  -3  -7   45.90   26.90
  11  -3   7   72.59   23.20
 -11  -3  -7   64.19   32.50
 -11   3   7  105.19   37.00
  11   3  -7  103.99   23.50
 -11   3  -7   76.29   26.70
 -11   3  -7   81.29   18.70
  11  -3  -7   92.09   29.50
  11   3   7   90.29   28.90
  11  -3  -7   65.29   27.90
 -11   0   8   19.00   23.80
 -11   0  -8   -3.00   18.60
 -11   0  -8  -15.50   17.60
  11   0  -8   -6.30   14.70
  11   0  -8   -8.60   14.80
  11   0   8   -0.30   13.90
 -11   0  -8    1.20   22.20
  11  -1   8   18.70   14.70
  11   1  -8   47.40   17.20
 -11  -1  -8    9.10   21.30
  11  -1   8   32.10   15.60
 -11  -1  -8   23.50   19.50
  11   1  -8   33.20   18.10
 -11   1   8    4.40   23.90
 -11  -1  -8   22.60   19.60
 -11  -1   8   31.60   20.00
  11   1   8    5.40   16.10
 -11   1  -8   24.80   17.80
  11  -1  -8   24.80   17.40
  11  -1  -8   17.80   19.20
  11   1   8   23.10   19.30
 -11   1  -8   -4.60   17.70
 -11  -1   8   16.70   24.90
 -11  -2  -8   28.80   19.30
  11  -2   8   59.19   19.50
  11   2  -8   94.89   21.50
  11  -2   8   70.49   16.70
 -11   2   8   23.40   23.60
 -11  -2  -8   59.19   22.00
 -11  -2  -8   52.39   25.80
  11   2  -8   52.19   20.80
 -11  -2  -8   84.59   25.10
  11  -2  -8   39.20   20.60
  11  -2  -8   18.40   21.80
 -11  -2   8   51.39   24.20
 -11   2  -8   54.49   20.20
 -11   2  -8   51.19   19.10
 -11  -2   8   28.20   27.30
  11   2   8   37.60   23.70
  11  -3   8  -19.00   16.90
  11  -3   8   10.60   29.60
 -11   3   8  -39.40   30.30
 -11  -3  -8   -1.90   28.70
 -11  -3  -8   -7.00   20.00
  11  -3   8   21.00   18.30
 -11  -3  -8   -1.30   31.70
  11   3   8   -3.80   27.10
  11  -3  -8   -3.00   23.50
  11  -3  -8   23.70   28.40
 -11  -3   8   -0.80   28.80
  11  -3  -8  -11.90   26.90
 -11   3  -8   34.60   17.30
 -11   3  -8  -32.80   25.70
 -11   0  -9  -14.20   18.30
 -11   0  -9    7.10   19.40
  11   0  -9   -6.90   14.80
  11   0   9   -7.70   15.50
 -11   0  -9   -4.10   16.40
 -11   0   9  -41.20   45.80
  11   0  -9    1.90   15.60
  11   0   9    4.10   14.10
  11   1  -9  885.71   64.99
 -11  -1  -9  795.02   74.29
 -11  -1  -9  709.93   69.79
  11  -1   9  831.22   67.99
  11  -1   9  899.71   63.59
 -11   1   9  866.11   92.49
 -11  -1  -9  732.43   65.29
  11   1  -9  944.91   73.29
 -11  -1   9  949.71   67.79
  11  -1  -9  733.73   74.39
  11   1   9  812.22   66.09
 -11  -1   9  913.61   79.29
 -11   1  -9  726.83   68.19
  11  -1  -9  720.63   65.39
 -11   1  -9  800.22   69.19
  11  -2   9    0.60   16.70
 -11   2   9   22.40   26.60
 -11  -2  -9   10.90   24.20
  11   2  -9   18.20   18.20
 -11  -2  -9   -2.00   21.40
  11  -2   9   22.10   15.10
 -11  -2  -9  -15.90   26.90
 -11  -2  -9   25.80   26.20
 -11  -2   9   21.60   23.70
  11   2   9    0.40   22.70
  11  -2  -9    4.30   19.30
  11  -2  -9   12.40   24.00
 -11   2  -9   10.60   19.00
  11  -3   9  121.49   25.20
 -11  -3  -9  157.08   34.00
  11  -3   9  147.99   22.60
 -11  -3  -9  112.49   24.90
  11  -3   9  113.19   20.60
  11   3  -9  184.18   26.20
  11  -3  -9   37.50   26.90
 -11   3  -9   73.99   27.70
 -11  -3   9  181.38   37.10
  11  -3  -9   74.99   31.20
  11   3   9  156.78   32.40
 -11   0 -10   -9.60   18.60
  11   0  10  -13.80   15.80
  11   0  10   -9.80   14.50
 -11   0 -10   -6.30   15.40
 -11   0  10  -12.70   24.40
 -11   0 -10  -23.50   18.20
  11   0 -10   16.30   16.90
  11   0 -10  -11.10   14.90
  11   1 -10   51.29   19.50
  11   1 -10   41.60   17.90
 -11  -1 -10    5.60   20.90
 -11   1  10   65.79   31.30
 -11  -1 -10   42.70   21.20
  11  -1  10   46.40   15.70
  11  -1  10   50.69   15.70
 -11  -1 -10   10.90   25.70
 -11   1 -10   -4.70   19.80
  11  -1 -10   11.40   21.80
  11   1  10   32.20   19.40
  11  -1 -10   37.00   18.70
 -11   1 -10   16.10   21.40
 -11  -2 -10    9.80   31.50
  11   2 -10   52.99   20.00
 -11  -2 -10   39.20   25.30
 -11  -2 -10   29.10   23.80
  11  -2  10   10.90   13.50
  11  -2  10    6.10   13.50
 -11   2 -10   29.50   20.40
 -11   2 -10   40.30   18.60
  11   2  10   56.99   25.40
  11  -2 -10   -0.70   25.80
  11  -2 -10   34.80   29.90
 -11  -2  10   70.19   26.50
  11  -2 -10   35.00   32.40
  11   0 -11   13.20   17.00
  11   0  11  -14.90   14.80
 -11   0 -11  -11.50   20.00
 -11   0 -11    6.30   19.40
 -11   0 -11   -8.90   14.70
 -11  -1 -11  205.98   29.80
 -11  -1 -11  179.98   33.10
  11  -1  11  205.28   22.20
  11   1 -11  217.98   26.50
 -11  -1 -11  113.49   28.00
 -11   1 -11  145.99   27.70
  11   1  11  240.98   29.90
  11  -1 -11  198.48   27.30
  11  -2  11    3.60   10.90
 -11  -2 -11  -42.40   26.30
 -11  -2 -11  -11.50   25.00
  11   2 -11   -2.90   17.70
 -11   2 -11    5.60   20.20
 -11  -2  11  -10.50   29.20
  11   2  11   -4.70   25.40
  11  -2 -11  -14.30   24.00
  11  -2 -11   -4.90   21.00
 -11   0 -12  -12.50   19.50
  11   0 -12    2.30   16.90
  11   0  12   -7.50   14.70
 -11  -1 -12   16.10   26.10
  11  -1  12   28.80   12.70
 -11  -1 -12   62.69   24.90
  11   1 -12   37.50   18.80
 -11  -1 -12   43.80   20.70
  11   1  12   38.10   20.50
  11  -1 -12   37.60   20.50
  11  -2  12    6.40    4.90
 -11  -2 -12   -2.70   26.20
  11   2 -12    2.70   16.90
 -11  -2 -12   59.59   25.50
  11  -2 -12  -23.10   23.00
  11   2  12   45.80   27.00
  11   0 -13   -2.50   17.90
 -11   0 -13   33.60   23.70
  11   0  13   -6.90   13.40
  11   1 -13  396.86   34.50
  11  -1  13  306.67   25.60
 -11  -1 -13  276.37   49.80
  11  -1 -13  276.67   39.40
  11   1  13  368.16   42.80
  11  -1 -13  361.16   37.00
 -11   1 -13  314.67   46.50
  11   0  14   34.50   12.80
  11   0 -14   -3.00   22.50
  12   0   0  820.82   71.59
 -12   0   0  867.71   74.29
  12   0   0  873.41   66.19
 -12   0   0  834.82   66.69
 -12  -1   0   24.10   19.60
  12  -1   0   14.00   14.50
 -12   1   0   17.20   19.70
  12   1   0   23.30   18.40
  12  -1   0   45.30   15.90
  12   1   0   27.20   17.20
 -12  -1   0   47.00   18.60
 -12   2   0  175.28   32.00
 -12  -2   0  181.78   37.20
  12  -2   0  156.38   29.70
  12  -2   0  212.98   27.30
  12   2   0  193.88   29.90
  12   2   0  149.69   27.20
 -12  -2   0  223.98   29.90
  12  -3   0   57.09   27.80
 -12  -3   0   95.39   35.40
  12   3   0   59.19   25.20
 -12  -3   0  114.99   27.50
 -12   3   0   37.70   23.90
  12  -3   0   81.79   25.20
  12   0  -1 1224.38   99.99
 -12   0  -1 1158.88  100.79
 -12   0  -1 1271.27   94.49
 -12   0   1 1294.67   94.69
 -12   0   1 1266.97  101.99
  12   0   1 1292.77   94.29
  12   0   1 1289.47  100.59
  12   0  -1 1256.77   94.09
  12   1  -1   22.50   17.30
 -12  -1  -1   20.80   19.40
  12  -1   1   34.70   15.20
  12   1  -1   15.70   15.60
 -12   1   1   23.30   21.50
  12  -1   1   35.10   15.50
 -12  -1  -1   18.20   17.70
  12   1   1   28.90   18.60
 -12  -1   1   22.80   20.50
  12   1   1    9.30   13.10
 -12  -1   1   22.30   18.20
 -12   1  -1    5.40   19.00
  12  -1  -1   23.30   14.80
  12  -1  -1   18.40   15.20
  12   2  -1  577.34   51.49
 -12   2   1  546.85   61.39
 -12  -2  -1  524.35   51.09
  12   2  -1  621.04   60.29
  12  -2   1  572.64   58.39
  12  -2   1  668.83   50.29
 -12  -2  -1  589.04   61.99
  12   2   1  591.44   51.99
  12  -2  -1  574.04   50.29
 -12  -2   1  585.34   51.59
  12  -2  -1  476.15   56.59
 -12   2  -1  790.92   84.39
  12   2   1  656.33   60.29
 -12  -2   1  585.64   62.99
  12  -3   1  215.98   32.70
  12   3  -1  220.88   38.00
 -12   3   1  146.29   30.80
  12   3  -1  251.17   31.90
 -12  -3  -1  218.18   39.30
 -12  -3  -1  195.88   32.00
  12  -3   1  141.69   33.10
  12   3   1  226.58   31.70
  12  -3  -1  202.98   31.80
 -12   3  -1  170.68   41.40
 -12  -3   1  205.18   33.00
 -12  -3   1  158.98   38.80
  12  -3  -1  123.19   31.00
  12   0  -2  397.46   48.00
  12   0  -2  460.65   43.30
 -12   0   2  527.35   53.99
 -12   0  -2  466.05   43.50
 -12   0  -2  514.75   55.19
  12   0   2  559.64   43.50
 -12   0   2  567.24   45.00
  12   0   2  592.04   51.39
 -12  -1  -2   85.09   20.40
  12  -1   2  107.09   18.20
  12  -1   2   54.09   17.50
  12   1  -2   58.29   19.70
 -12  -1  -2   64.69   22.70
 -12   1   2   81.59   25.70
  12   1  -2   92.79   20.20
 -12  -1   2   91.59   23.50
  12   1   2   78.99   21.00
  12   1   2  119.79   25.50
  12  -1  -2   97.69   21.70
 -12   1  -2   40.40   21.70
  12  -1  -2   91.19   18.60
 -12  -1   2   87.49   20.50
  12  -2   2  101.09   24.30
  12   2  -2   76.69   22.60
 -12  -2  -2   91.59   23.80
 -12  -2  -2   64.29   26.90
  12   2  -2   56.89   20.50
 -12   2   2  118.79   27.10
  12   2   2  116.89   27.80
 -12  -2   2  128.09   23.70
  12   2   2  180.18   45.90
 -12   2  -2   53.59   22.00
  12  -2  -2   49.30   23.90
 -12  -2   2  147.89   33.40
  12  -2  -2   69.89   20.20
  12   3  -2   36.30   24.70
 -12   3   2   37.90   25.90
  12  -3   2    2.30   25.70
  12   3  -2   37.60   24.00
 -12  -3  -2   59.39   27.30
  12  -3   2   74.79   23.80
 -12  -3  -2   58.19   31.50
  12  -3  -2   10.50   24.50
  12   3   2   80.89   25.80
 -12   3  -2   24.70   25.90
  12  -3  -2   58.19   24.40
 -12  -3   2   72.89   27.40
 -12  -3   2  140.99   64.99
  12  -3  -2   12.30   25.90
  12   0   3  506.65   47.20
  12   0  -3  618.94   46.90
  12   0   3  514.85   52.99
  12   0  -3  580.04   53.39
 -12   0  -3  616.34   56.39
 -12   0   3  537.55   57.09
 -12   0  -3  577.34   48.00
 -12   0   3  528.15   48.10
 -12  -1  -3   18.10   21.30
  12   1  -3   -3.60   16.00
  12  -1   3   35.10   15.60
  12  -1   3   17.30   14.10
 -12   1   3   23.40   22.80
 -12  -1  -3   21.60   18.00
  12   1   3    0.10   16.50
  12   1   3   31.80   19.40
 -12  -1   3   38.00   21.90
  12  -1  -3   17.80   17.30
 -12   1  -3   -5.40   17.90
  12  -1  -3   29.10   15.70
 -12   2   3  446.36   57.99
  12   2  -3  563.44   55.09
 -12  -2  -3  523.15   59.09
 -12  -2  -3  549.74   47.80
  12   2  -3  540.45   46.90
  12  -2   3  472.35   52.49
  12  -2   3  542.55   45.30
 -12  -2   3  488.85   59.69
 -12  -2   3  495.05   46.50
  12  -2  -3  483.65   53.39
  12  -2  -3  528.85   45.60
  12   2   3  439.06   52.69
  12  -3   3  124.79   25.60
  12   3  -3  123.09   27.50
 -12  -3  -3  145.99   36.30
 -12   3   3   69.59   30.80
  12  -3   3   56.39   24.60
  12  -3   3   82.89   27.70
  12   3  -3  152.18   27.30
 -12  -3  -3  176.08   31.00
  12   3   3  133.49   29.20
 -12   3  -3  131.39   21.20
  12  -3  -3  115.89   27.00
  12  -3  -3   85.99   29.00
 -12  -3   3  162.48   39.50
 -12  -3   3  142.49   29.70
  12   0   4  982.70   79.69
  12   0  -4 1101.79   86.29
  12   0   4  922.31   84.79
 -12   0   4 1077.89  105.39
  12   0  -4 1096.89   79.89
 -12   0   4 1021.40   83.39
 -12   0  -4 1066.79   87.39
 -12   0  -4 1103.39   80.29
  12  -1   4  162.68   29.10
 -12   1   4  154.28   32.90
  12  -1   4  167.48   24.00
 -12  -1  -4  184.08   35.60
  12   1  -4  139.89   26.50
 -12  -1  -4  142.19   24.20
  12  -1  -4  156.18   28.40
  12   1   4  150.68   29.30
 -12  -1   4  156.28   25.30
 -12  -1   4  122.69   28.30
  12  -1  -4  164.08   24.10
  12   1   4  144.49   25.10
  12   2  -4  335.57   42.90
 -12  -2  -4  267.37   47.40
  12  -2   4  284.47   40.20
 -12  -2  -4  387.56   56.09
  12   2  -4  285.77   35.30
  12  -2   4  327.67   32.60
  12   2   4  338.87   43.70
 -12  -2   4  337.67   49.70
 -12  -2   4  325.07   36.80
  12   2   4  284.47   38.40
  12  -2  -4  293.07   42.20
 -12   2  -4  287.47   41.60
  12  -2  -4  268.67   34.30
  12  -3   4  180.78   35.10
 -12  -3  -4  217.78   33.80
  12   3  -4  159.98   31.60
 -12  -3  -4  155.88   36.70
  12   3  -4  170.08   29.00
 -12   3   4  180.68   39.50
  12  -3   4  153.38   27.60
  12  -3   4  228.08   31.60
 -12  -3   4  177.18   31.90
  12  -3  -4  108.89   30.90
 -12   3  -4  134.89   31.70
  12  -3  -4  136.69   28.40
  12  -3  -4   69.99   29.80
  12   3   4  155.38   31.00
 -12  -3   4  152.68   40.10
 -12   3  -4  121.79   20.60
  12   0   5  760.32   59.79
  12   0  -5  518.35   56.49
 -12   0  -5  544.35   51.59
  12   0  -5  636.74   54.59
 -12   0   5  728.83   65.69
  12   1  -5  145.99   22.90
  12   1  -5  109.79   23.70
 -12  -1  -5  133.59   24.10
  12  -1   5  181.28   24.40
 -12  -1  -5  134.79   28.20
 -12   1   5  168.68   33.10
  12  -1   5  123.19   24.00
  12  -1  -5  172.88   23.70
  12   1   5  183.08   26.30
 -12  -1   5  188.08   25.50
  12   1   5  126.49   24.40
 -12  -1   5  163.98   29.60
 -12   1  -5   91.69   24.50
  12  -1  -5  119.69   27.40
  12   2  -5  111.19   23.70
 -12  -2  -5   66.29   28.00
  12  -2   5   84.89   22.20
  12   2  -5   69.39   22.40
  12  -2   5  112.59   20.20
 -12   2   5   37.10   24.30
 -12  -2   5  101.09   30.20
  12   2   5   81.99   20.80
  12  -2  -5   59.59   21.20
 -12  -2   5  117.09   24.90
  12  -2  -5   78.59   21.60
 -12   2  -5   83.19   23.50
  12   2   5  122.69   26.50
 -12  -3  -5   77.79   30.10
  12  -3   5   24.30   27.80
  12   3  -5   41.80   23.60
  12  -3   5   34.30   20.60
  12  -3   5   79.89   22.60
 -12  -3  -5   52.19   35.70
 -12   3   5   96.99   36.50
 -12  -3  -5   49.00   23.60
 -12  -3  -5   74.19   24.60
 -12   3  -5   32.90   20.60
  12  -3  -5   45.70   24.60
  12  -3  -5   -1.10   24.50
  12  -3  -5   44.30   28.10
 -12   3  -5   21.30   31.10
  12   3   5   67.09   27.90
  12   0  -6  149.49   24.80
  12   0  -6  148.09   22.10
 -12   0  -6   99.79   26.10
 -12   0  -6  162.68   23.10
  12   0   6  129.39   23.30
 -12   0   6  142.89   31.70
  12   0   6   81.69   21.20
 -12   1   6    2.60   23.60
 -12  -1  -6   26.60   23.10
 -12  -1  -6   21.30   19.90
  12   1  -6    7.10   17.30
  12  -1   6   28.10   15.90
  12   1  -6   21.30   17.10
  12  -1  -6   21.30   16.60
  12  -1  -6   23.10   18.60
  12   1   6   -3.50   19.40
  12   1   6    0.50   16.70
 -12  -1   6  -10.60   21.70
 -12  -1   6    9.10   18.70
 -12   1  -6    9.10   18.70
 -12  -2  -6  166.28   35.50
  12   2  -6  239.18   31.80
 -12   2   6  261.27   42.80
 -12  -2  -6  188.48   29.20
 -12  -2  -6  215.38   35.90
  12  -2   6  287.37   29.00
  12  -2   6  260.47   36.10
 -12   2  -6  206.18   27.70
  12  -2  -6  216.68   31.10
  12   2   6  233.58   33.00
 -12  -2   6  254.67   34.50
  12  -2  -6  143.69   31.00
 -12  -2   6  199.98   36.90
 -12   2  -6  181.98   30.50
 -12  -3  -6   70.89   33.50
  12  -3   6   37.00   27.60
 -12  -3  -6   25.80   23.30
 -12   3   6   89.89   40.10
  12  -3   6   59.49   22.10
  12  -3   6   47.60   20.70
 -12  -3  -6   20.80   29.00
 -12  -3  -6   96.99   31.30
 -12   3  -6   54.59   18.40
 -12   3  -6   -2.20   26.60
  12  -3  -6   38.30   24.60
  12  -3  -6    7.00   25.30
 -12  -3   6   69.69   30.50
  12  -3  -6   17.10   28.40
  12   3   6   34.60   27.10
  12   0   7 1381.06  110.69
  12   0  -7 1295.87  110.79
 -12   0  -7 1387.36  111.19
  12   0  -7 1483.85  104.79
 -12   0  -7 1401.96  108.09
 -12   0   7 1412.96  117.09
 -12   0  -7 1398.36  104.59
  12   0   7 1417.86  104.49
  12  -1   7  145.59   25.00
  12   1  -7  152.88   23.10
 -12  -1  -7  131.99   24.30
 -12  -1  -7  119.09   24.70
  12   1  -7  129.49   26.40
 -12   1   7  110.99   32.30
 -12   1  -7  118.89   24.20
  12   1   7  139.39   25.10
 -12  -1   7  137.09   25.00
 -12  -1   7   92.69   29.90
 -12   1  -7   93.49   23.50
  12  -1  -7  117.09   26.80
  12   1   7   96.59   24.30
  12  -1  -7  104.69   21.40
  12   2  -7  351.56   36.90
 -12  -2  -7  301.37   43.40
 -12  -2  -7  357.46   55.89
 -12   2   7  338.37   52.99
  12   2  -7  378.06   44.50
  12  -2   7  363.46   41.30
 -12  -2  -7  284.07   38.10
 -12  -2   7  366.46   40.70
 -12   2  -7  274.27   39.80
 -12  -2   7  314.07   52.29
  12   2   7  275.97   38.50
 -12   2  -7  287.67   38.50
  12  -2  -7  275.57   34.90
  12  -2  -7  258.37   45.00
 -12   3   7   10.30   47.30
 -12  -3  -7   69.79   36.90
  12  -3   7   57.79   21.40
  12  -3   7   38.80   20.90
 -12  -3  -7   76.39   49.00
  12   3  -7   22.00   24.60
 -12  -3  -7   12.40   21.70
  12  -3   7   96.39   26.70
 -12  -3  -7   54.69   30.90
  12   3   7   72.69   29.40
  12  -3  -7   48.20   25.80
 -12  -3   7   68.09   31.90
 -12   3  -7   -4.00   26.30
 -12   3  -7   30.70   18.00
  12  -3  -7    6.30   27.50
  12  -3  -7    0.20   25.40
  12   0   8   88.09   21.60
  12   0  -8   67.39   20.00
 -12   0   8   56.49   29.50
 -12   0  -8   30.20   21.10
 -12   0  -8   70.29   34.90
 -12   0  -8   58.29   20.10
  12   0  -8  109.29   20.50
  12   0   8   49.10   19.40
 -12   1   8   26.00   24.80
  12   1  -8   17.20   29.70
  12   1  -8    8.60   17.20
  12  -1   8   40.60   17.60
 -12  -1  -8  -10.80   21.90
 -12  -1  -8   17.90   20.80
  12  -1   8   14.40   16.70
 -12  -1  -8  -10.90   20.30
  12  -1  -8   13.30   19.40
  12   1   8   15.60   20.90
 -12   1  -8    1.50   18.80
 -12   1  -8    1.00   19.60
 -12  -1   8   -2.40   20.90
  12   1   8   12.20   16.30
 -12  -1   8   17.70   25.10
  12  -1  -8    6.30   17.10
 -12  -2  -8  118.39   26.80
  12  -2   8  113.99   21.40
  12   2  -8  181.98   26.10
  12  -2   8  110.09   24.50
 -12  -2  -8  131.59   31.00
 -12  -2  -8  138.89   29.10
 -12   2  -8  117.29   24.80
  12  -2  -8  125.99   24.90
  12   2   8  126.39   28.30
 -12   2  -8  110.99   23.70
  12  -2  -8   87.59   27.70
 -12  -2   8  138.99   29.10
  12   3  -8   16.40   22.20
 -12  -3  -8   39.90   29.60
  12  -3   8   11.70   21.10
  12  -3   8   59.19   30.90
 -12   3   8    9.50   34.90
 -12  -3  -8   81.29   32.70
  12  -3   8   37.70   23.20
 -12  -3  -8   10.70   21.70
 -12   3  -8   21.90   19.40
 -12   3  -8   31.30   31.90
  12  -3  -8  -18.80   27.00
  12   3   8   37.60   29.60
 -12  -3   8   53.79   32.80
  12  -3  -8   62.19   25.80
  12  -3  -8   31.40   35.60
 -12   0  -9  378.66   46.40
  12   0  -9  407.26   37.00
 -12   0  -9  312.37   43.50
 -12   0  -9  323.47   36.80
  12   0   9  319.87   40.70
 -12   0   9  387.56   56.89
  12   0   9  490.65   48.10
 -12  -1  -9   75.09   23.20
  12   1  -9   37.60   20.70
  12   1  -9   53.29   19.50
 -12   1   9   23.80   27.20
  12  -1   9   40.30   17.50
  12  -1   9   37.50   17.00
 -12  -1  -9   56.49   25.90
 -12  -1  -9   -4.90   21.60
  12   1   9   41.60   22.20
  12  -1  -9   61.89   19.80
 -12   1  -9   10.00   20.90
 -12  -1   9   50.19   29.90
 -12   1  -9   50.89   20.90
 -12  -1   9   47.90   22.90
 -12   2   9  185.28   38.30
 -12  -2  -9  124.99   34.10
 -12  -2  -9  177.78   31.40
 -12  -2  -9  125.49   27.30
  12  -2   9  207.08   32.20
 -12   2  -9   79.79   34.30
  12  -2  -9   80.29   27.20
 -12   2  -9  110.09   24.90
  12  -2  -9  128.89   25.90
  12   2   9  143.09   29.60
 -12   0 -10  115.09   25.80
 -12   0  10  224.58   50.79
  12   0  10  194.58   24.30
  12   0 -10  148.59   23.90
  12   0 -10  114.89   25.50
  12   0  10  141.09   24.70
 -12   0 -10  111.99   22.10
 -12   0 -10   67.19   24.70
  12  -1  10    1.10   16.30
 -12   1  10   14.10   30.70
 -12  -1 -10   19.40   32.80
  12   1 -10    4.80   17.60
 -12  -1 -10  -21.00   21.70
  12  -1  10   16.80   19.30
 -12  -1 -10   26.80   21.40
  12  -1 -10   18.80   21.50
  12  -1 -10   20.60   19.10
 -12   1 -10  -20.40   21.00
  12   1  10   25.70   21.50
 -12   1 -10   26.40   21.10
 -12  -2 -10    3.70   39.80
  12  -2  10   62.19   16.00
 -12  -2 -10   80.99   28.10
  12   2 -10   90.69   21.70
 -12  -2 -10   69.39   28.10
  12  -2  10   54.19   16.90
  12   2  10   90.59   28.00
  12  -2 -10    4.30   28.50
 -12   2 -10   55.89   23.10
 -12   2 -10   61.09   21.70
  12  -2 -10   52.09   22.80
  12   0 -11  195.28   26.50
  12   0  11  160.28   24.00
 -12   0 -11  138.79   27.00
 -12   0 -11  165.68   22.80
 -12   0 -11  104.29   27.60
  12  -1  11   -0.40   14.40
  12   1 -11   14.40   18.90
  12  -1  11   31.20   14.80
 -12  -1 -11   -3.40   25.60
 -12  -1 -11   12.10   21.60
  12  -1 -11   23.50   19.60
 -12   1 -11   22.70   18.80
  12   1  11   14.50   22.10
 -12   1 -11   12.40   23.40
 -12  -2 -11   70.59   29.10
 -12  -2 -11   61.99   26.40
 -12  -2  11   48.70   30.60
  12  -2 -11   23.10   30.40
  12   2  11   43.70   27.60
  12  -2 -11   60.59   23.90
 -12   0 -12   30.90   22.80
 -12   0 -12   50.59   21.50
  12   0 -12   83.39   21.90
  12   0  12   95.69   19.20
 -12   0 -12   49.60   25.00
 -12  -1 -12  -47.00   25.70
  12   1 -12    4.30   19.00
 -12  -1 -12    4.20   20.70
 -12  -1 -12   -1.70   24.30
  12  -1  12    7.70   12.80
  12   1  12   16.00   21.00
  12  -1 -12   20.50   19.70
 -12   1 -12   38.30   24.20
  12   0 -13   97.79   25.60
 -12   0 -13    3.20   21.30
  12   0  13   49.50   16.60
 -12  -1 -13  -44.40   34.80
 -12  -1 -13   -6.60    5.40
  12  -1  13   40.80   15.90
  12  -1 -13   -9.80   19.50
  12   1  13    5.40   21.20
  13   0   0    4.90   16.60
 -13   0   0  -18.30   16.60
  13   0   0   -6.90   13.30
 -13   0   0  -14.60   18.10
  13  -1   0  951.70   68.79
  13   1   0  869.91   77.39
  13  -1   0  828.72   74.69
 -13  -1   0  929.81   69.89
 -13  -1   0  830.42   79.19
 -13   1   0  784.72   78.19
  13   1   0  921.21   70.19
 -13   2   0   14.30   22.10
  13  -2   0   20.70   18.40
 -13  -2   0   10.20   21.20
  13  -2   0   18.60   20.10
  13   2   0   11.00   21.80
  13   2   0   -4.00   16.00
 -13  -2   0    4.40   26.90
 -13  -3   0  117.29   31.40
  13   3   0  149.49   36.40
  13  -3   0  102.39   27.10
  13   3   0  112.19   28.70
 -13   3   0  110.29   33.50
 -13  -3   0  112.29   38.90
 -13   0   1    2.60   19.30
 -13   0  -1    3.70   17.10
  13   0   1   15.80   16.60
  13   0   1   -6.50   14.30
  13   0  -1   15.10   15.60
  13   0  -1    2.00   15.90
 -13   0   1  -13.00   16.80
 -13   0  -1   -4.90   18.90
  13   1  -1   93.79   21.80
  13  -1   1   97.39   19.20
 -13   1   1  106.99   27.10
 -13  -1  -1   79.39   21.90
 -13  -1  -1   65.89   22.70
  13   1  -1   62.59   18.80
 -13  -1   1   58.19   23.30
  13   1   1   87.39   22.60
  13  -1  -1   90.19   21.60
 -13   1  -1   60.99   23.60
  13  -1  -1  102.29   19.50
  13   1   1   42.30   18.40
  13   2  -1  168.08   32.70
 -13   2   1  144.59   30.20
 -13  -2  -1  153.68   26.90
  13   2  -1  171.68   27.80
 -13  -2  -1  197.08   54.19
  13  -2   1  129.89   27.50
  13  -2   1  130.09   23.60
 -13   2  -1   89.09   25.80
  13  -2  -1  120.09   28.30
  13  -2  -1  135.29   24.60
  13   2   1   83.49   26.60
 -13  -2   1  125.49   32.50
 -13  -2   1  153.48   27.10
  13   2   1  177.38   28.40
  13  -3   1   17.30   29.00
 -13  -3  -1  -43.80   31.10
  13  -3   1   39.20   25.60
  13   3  -1    6.20   25.00
 -13  -3  -1   44.90   28.70
  13   3  -1  -19.00   24.00
 -13   3   1   -5.70   30.50
 -13   3  -1    0.00   26.50
  13  -3  -1   37.80   27.30
  13  -3  -1   17.30   23.90
 -13  -3   1   22.30   38.30
 -13  -3   1   44.80   28.00
  13   3   1   10.20   25.50
  13   0  -2   -0.60   13.30
 -13   0  -2    3.20   17.70
 -13   0  -2  -11.90   18.80
 -13   0   2    1.50   19.40
 -13   0   2  -10.80   17.00
  13   0  -2    8.80   15.70
  13   0   2    0.40   24.00
  13   0   2    6.30   16.70
  13   1  -2 1083.49   89.89
  13  -1   2  909.21   85.69
 -13   1   2  976.00   91.39
 -13  -1  -2 1154.68   91.69
 -13  -1  -2 1114.59   82.59
  13  -1   2 1131.69   81.09
  13  -1  -2 1144.49   81.59
  13   1   2  996.50   81.89
  13   1   2 1079.59   90.39
 -13   1  -2 1018.50   89.59
 -13  -1   2 1118.39   82.29
 -13  -1   2 1020.20  106.89
  13  -1  -2  979.60   86.99
  13   2  -2  -15.10   20.60
 -13  -2  -2   15.40   27.10
  13  -2   2   25.10   20.80
 -13   2   2   25.60   23.50
  13   2  -2   39.60   21.80
 -13  -2  -2   -5.20   22.30
  13  -2   2    9.00   18.10
  13  -2  -2    7.40   19.50
 -13  -2   2    3.70   27.90
  13   2   2   13.80   23.00
  13   2   2    6.90   20.70
 -13   2  -2   11.30   20.60
  13  -2  -2    8.70   20.20
 -13  -2   2   28.40   22.00
 -13  -3  -2  182.08   33.70
  13   3  -2  281.97   50.89
 -13   3   2  176.28   34.10
  13   3  -2  220.58   32.10
 -13  -3  -2  194.68   40.30
  13  -3   2  142.09   34.20
  13  -3   2  185.18   30.20
  13   3   2  230.58   33.60
  13  -3  -2  130.19   29.20
 -13  -3   2  149.19   34.90
  13  -3  -2  149.29   31.90
 -13   3  -2  109.39   29.90
 -13  -3   2  168.28   41.90
 -13   0   3    5.30   19.90
  13   0  -3   11.30   16.30
  13   0   3    8.60   17.10
 -13   0  -3    9.80   20.80
  13   0   3   13.80   16.40
 -13   0  -3   -6.40   18.00
  13   0  -3    0.10   13.30
 -13   1   3  244.88   36.80
  13   1  -3  247.48   36.90
  13   1  -3  245.68   29.40
  13  -1   3  249.28   28.40
 -13  -1  -3  273.97   38.00
 -13  -1  -3  270.87   31.10
  13  -1   3  223.18   33.20
  13  -1  -3  201.98   34.50
  13  -1  -3  218.98   29.00
 -13  -1   3  211.78   31.20
  13   1   3  249.97   31.80
 -13  -1   3  247.28   37.70
  13   1   3  164.88   30.90
 -13   1  -3  210.68   34.10
  13   2  -3  233.98   34.10
  13  -2   3  229.18   38.90
  13  -2   3  281.57   31.00
 -13  -2  -3  168.48   36.80
 -13   2   3  285.47   47.90
  13   2  -3  254.47   40.90
 -13  -2  -3  265.17   35.60
  13   2   3  213.48   39.60
 -13  -2   3  314.47   35.70
  13  -2  -3  258.57   32.40
  13   2   3  214.08   34.80
 -13   2  -3  195.98   34.80
 -13  -2   3  308.97   49.99
 -13  -3  -3   51.69   34.30
  13   3  -3   52.99   26.60
  13   3  -3   63.19   22.30
 -13   3   3   64.39   49.00
  13  -3   3   52.69   24.10
 -13  -3  -3   75.09   31.00
  13  -3   3   88.19   29.60
  13   3   3   47.40   27.40
  13  -3  -3   31.90   26.50
 -13   3  -3   14.40   23.20
 -13  -3   3  129.49   38.10
  13  -3  -3   42.50   24.70
  13   0  -4   -5.00   14.90
  13   0   4   14.40   17.60
  13   0  -4    7.90   23.20
  13   0   4    2.60   15.40
 -13   0   4  -16.60   19.60
 -13   0  -4  -32.30   19.00
 -13   0  -4   -7.20   17.80
 -13   0   4  -12.60   17.30
  13   1  -4  321.57   34.50
 -13  -1  -4  326.27   36.80
 -13  -1  -4  338.47   48.10
  13   1  -4  335.07   41.60
 -13   1   4  321.27   53.39
  13  -1   4  374.66   34.40
  13  -1   4  332.27   39.50
  13  -1  -4  278.07   39.50
  13   1   4  338.17   55.89
 -13  -1   4  313.77   36.40
  13   1   4  286.97   37.10
 -13  -1   4  333.67   48.60
  13  -1  -4  330.07   33.80
 -13  -2  -4  -33.00   24.00
  13   2  -4   10.80   21.10
 -13  -2  -4   49.99   25.00
  13   2  -4    0.30   20.30
  13  -2   4    4.90   16.60
 -13   2   4   14.40   27.80
  13  -2   4   24.10   18.60
  13  -2  -4   -7.20   18.90
 -13  -2   4   15.60   29.60
 -13   2  -4    2.50   20.20
  13   2   4   17.40   24.20
  13   2   4   13.40   19.60
 -13  -2   4   15.20   23.00
 -13  -3  -4  101.09   31.90
 -13  -3  -4   49.10   35.60
 -13   3   4   75.79   31.60
  13  -3   4   98.49   31.60
  13  -3   4  115.79   25.20
  13  -3  -4   66.49   34.20
  13  -3  -4   26.50   24.70
 -13   3  -4   66.59   22.00
  13   3   4   95.99   29.60
  13  -3  -4   67.29   26.40
 -13   3  -4   88.79   28.90
 -13  -3   4   70.29   29.70
  13   0   5   -8.70   17.30
 -13   0  -5   -5.00   25.70
  13   0   5    7.40   16.60
 -13   0   5  -28.00   21.80
  13   0  -5   11.60   15.00
 -13   0  -5    2.90   18.80
  13   0  -5   15.50   16.60
 -13  -1  -5  152.18   27.60
  13  -1   5  237.18   27.20
 -13   1   5  167.58   34.10
  13   1  -5  183.18   32.10
  13  -1   5  212.08   32.80
  13   1  -5  163.38   25.60
 -13  -1  -5  160.18   30.70
  13   1   5  180.38   30.80
 -13  -1   5  194.38   35.60
 -13   1  -5  109.89   27.50
  13  -1  -5  129.09   24.40
 -13  -1   5  210.88   29.80
  13   1   5  231.18   29.80
  13  -2   5  136.39   26.60
  13   2  -5  178.18   27.50
  13  -2   5  214.48   27.60
  13   2  -5  161.38   32.60
 -13   2   5  147.09   33.10
 -13  -2  -5  229.58   34.40
 -13  -2  -5  188.18   35.30
 -13  -2   5  167.38   29.30
  13  -2  -5  115.29   30.30
  13  -2  -5  181.98   28.30
 -13   2  -5  184.28   30.30
  13   2   5  162.88   31.00
  13   2   5  121.19   28.70
 -13  -3  -5  -41.70   22.50
 -13  -3  -5   31.80   42.80
  13  -3   5   13.70   32.40
 -13  -3  -5   13.20   30.50
 -13  -3  -5  -43.40   47.90
 -13   3   5  -19.60   28.30
  13  -3   5  -26.10   26.10
  13  -3   5   56.79   23.70
  13   3  -5   11.40   24.10
  13   3   5   27.90   28.50
 -13   3  -5   -2.30   17.50
 -13   3  -5   32.90   32.20
 -13  -3   5   55.99   30.40
  13  -3  -5   29.80   25.20
  13  -3  -5   17.40   24.70
  13   0   6   26.80   17.30
 -13   0  -6   22.60   21.80
  13   0  -6    2.10   15.00
  13   0  -6   29.50   17.10
 -13   0   6    0.90   24.80
 -13   0  -6    8.10   18.80
  13   0   6   -8.30   19.10
  13  -1   6  834.32   58.49
 -13  -1  -6  674.33   59.89
 -13   1   6  693.23   73.59
  13   1  -6  664.93   65.29
  13   1  -6  758.32   57.89
  13  -1   6  854.91   66.49
 -13  -1  -6  765.12   69.69
  13  -1  -6  589.54   64.69
  13   1   6  695.03   66.69
  13   1   6  709.93   59.29
  13  -1  -6  606.34   57.89
 -13   1  -6  600.04   64.89
  13  -2   6   41.20   19.10
  13   2  -6   13.80   20.90
 -13   2   6   14.80   31.60
 -13  -2  -6   -5.20   25.30
 -13  -2  -6   44.60   26.70
  13  -2   6   35.80   18.20
  13   2  -6  -25.30   18.70
  13   2   6   31.00   24.00
 -13   2  -6   -9.70   22.60
 -13  -2   6  -14.30   27.60
  13   2   6   -4.50   26.50
 -13   2  -6   -6.20   19.80
 -13  -2   6   14.50   24.60
  13  -2  -6  -15.10   20.60
  13  -2  -6   13.60   20.20
 -13  -3  -6   88.49   33.20
  13  -3   6   98.09   26.80
 -13   3   6  126.19   39.20
  13  -3   6   53.99   29.70
  13   3  -6  178.68   29.10
 -13  -3  -6   60.09   25.90
 -13  -3  -6  120.59   36.90
  13  -3   6  157.98   27.10
 -13  -3  -6   46.30   39.40
  13  -3  -6   87.19   28.10
  13   3   6  135.49   32.50
 -13   3  -6   64.39   31.50
  13  -3  -6   69.09   29.60
 -13  -3   6  141.69   33.80
 -13   3  -6  111.39   21.80
  13   0   7   -0.10   19.80
 -13   0  -7  -10.00   19.10
 -13   0   7    5.00   26.20
 -13   0  -7  -23.80   20.70
  13   0  -7   10.40   17.10
 -13   0  -7  -10.30   21.40
  13   0   7   -1.10   17.60
  13   0  -7    4.30   15.20
  13   1  -7   58.49   21.00
 -13  -1  -7   29.50   22.60
 -13  -1  -7   23.60   33.70
 -13  -1  -7   70.69   24.20
 -13   1   7   14.60   26.90
  13   1  -7   74.49   20.30
  13  -1   7   28.60   18.80
  13  -1   7   66.29   18.80
 -13  -1   7   57.69   23.60
 -13   1  -7   31.70   24.60
  13   1   7   64.99   24.20
  13  -1  -7   46.00   19.10
  13  -1  -7   40.00   18.80
 -13   1  -7   33.80   22.70
  13   1   7   42.90   23.60
 -13   2   7   78.39   33.00
  13  -2   7   95.29   23.50
  13  -2   7  111.19   21.00
 -13  -2  -7   42.00   30.40
 -13  -2  -7   88.49   29.70
  13   2  -7  112.79   27.90
 -13  -2  -7   56.49   25.90
  13   2  -7  138.89   25.70
 -13  -2   7  115.79   29.30
  13  -2  -7   51.49   26.90
  13  -2  -7   63.19   22.60
 -13   2  -7   85.69   24.70
 -13   2  -7   80.89   23.60
  13   2   7  128.89   45.20
 -13  -3  -7  -35.70   21.60
  13  -3   7   86.39   29.50
  13  -3   7   19.40   21.30
 -13  -3  -7  -16.80   31.70
 -13   3   7   12.00   40.30
  13  -3   7    2.90   19.80
 -13  -3  -7  -45.40   37.20
  13   3  -7    4.20   24.00
  13  -3  -7   28.30   25.40
 -13   3  -7   -7.00   18.80
 -13  -3   7   57.49   55.99
  13   3   7   22.00   29.70
  13  -3  -7  -19.70   33.00
  13  -3  -7   53.19   32.40
 -13   0  -8  -20.20   19.00
  13   0  -8   -6.70   16.00
 -13   0  -8   -8.80   21.20
  13   0   8    0.00   19.40
  13   0   8   14.50   16.90
  13   0  -8   17.00   17.80
  13   1  -8  322.77   42.00
 -13  -1  -8  296.77   36.80
  13   1  -8  348.07   33.50
 -13  -1  -8  275.67   46.60
  13  -1   8  278.87   36.50
 -13  -1  -8  263.17   34.90
  13  -1   8  351.96   46.40
 -13   1   8  402.56   62.89
 -13  -1   8  301.37   38.70
 -13  -1   8  344.67   55.39
 -13   1  -8  237.98   34.50
  13  -1  -8  272.67   32.60
  13   1   8  210.68   35.90
  13   1   8  210.98   38.10
  13  -1  -8  272.57   41.20
 -13   1  -8  288.87   41.50
  13   2  -8    0.80   21.70
 -13  -2  -8  -36.20   22.10
 -13  -2  -8   17.90   30.30
  13  -2   8    1.00   19.90
  13  -2   8   17.70   20.50
 -13   2   8  -28.40   27.70
 -13  -2  -8   -7.70   28.10
 -13   2  -8  -22.90   19.10
 -13   2  -8  -12.60   21.00
  13  -2  -8    9.80   20.70
 -13  -2   8   -9.50   29.10
  13  -2  -8  -21.20   41.10
  13   0  -9    0.20   17.80
 -13   0  -9   -8.80   21.50
  13   0   9  -11.60   19.50
 -13   0  -9    1.60   22.30
 -13   0  -9    1.00   19.60
  13   0  -9    1.40   17.70
 -13   0   9  -50.59   27.90
 -13  -1  -9   68.99   25.40
  13   1  -9  135.29   44.60
 -13   1   9   99.29   33.70
  13  -1   9   91.19   22.30
  13   1  -9  156.38   24.80
  13  -1   9  108.69   22.10
 -13  -1  -9  108.99   25.80
 -13  -1  -9   61.49   29.30
  13  -1  -9   73.19   21.60
  13  -1  -9   70.09   23.30
 -13   1  -9  101.19   24.40
  13   1   9   88.39   25.60
 -13   1  -9   56.69   24.60
  13   1   9   97.39   24.40
 -13  -2  -9   45.50   31.10
  13  -2   9   77.19   19.50
  13   2  -9   88.99   25.80
 -13  -2  -9   44.50   25.20
  13  -2   9   57.09   21.90
  13  -2  -9   67.99   23.40
  13  -2  -9   10.50   28.50
  13   2   9   40.50   48.10
 -13  -2   9   92.99   35.60
 -13   2  -9   89.49   24.70
 -13   2  -9   55.19   39.00
  13   0 -10  -11.10   17.30
 -13   0 -10  -30.10   21.90
 -13   0 -10   -8.40   23.20
  13   0  10  -20.60   17.00
 -13   0 -10   -0.50   22.00
  13   0  10  -20.10   22.00
  13   1 -10  326.77   35.00
 -13  -1 -10  404.96   64.39
  13  -1  10  312.27   33.30
 -13  -1 -10  232.08   42.10
 -13  -1 -10  291.17   38.00
  13   1  10  284.07   37.00
 -13   1 -10  366.76   44.90
  13  -1 -10  276.17   34.50
 -13   1 -10  284.87   45.60
 -13  -2 -10   44.90   38.90
 -13  -2 -10   -9.90   24.00
  13  -2  10  -33.90   14.70
  13  -2  10  -10.20   14.70
  13   2 -10  -24.50   23.80
 -13   2 -10  -46.10   20.70
  13   2  10  -35.90   43.40
  13  -2 -10   25.30   22.10
 -13  -2  10  -41.90   29.10
 -13   2 -10  -16.60   25.60
 -13   0 -11  -11.20   17.70
 -13   0 -11    5.60   23.70
 -13   0 -11  -27.10   21.90
  13   0 -11    7.70   20.40
  13   0  11  -17.40   19.70
 -13  -1 -11   12.80   24.20
 -13  -1 -11   -7.40   27.30
 -13  -1 -11  -30.50   23.90
  13   1 -11  -11.70   21.10
  13  -1  11  -13.30   15.80
  13  -1  11   31.10   16.20
  13   1  11    0.20   23.10
  13  -1 -11   20.10   20.50
 -13   1 -11    5.30   24.80
 -13   1 -11  -29.10   20.30
 -13   0 -12  -37.30   24.50
  13   0  12  -14.40   17.60
 -13   0 -12  -31.20   23.30
  13   0 -12    9.80   20.90
  13   1 -12  152.68   26.50
  13  -1  12  112.19   18.10
 -13   1 -12   97.49   33.20
  13   1  12  122.09   25.70
  13  -1 -12   67.49   23.60
 -14   0   0  184.08   29.70
 -14   0   0  276.47   39.20
  14   0   0  223.58   29.00
  14   0   0  203.68   34.90
 -14  -1   0   87.39   26.20
  14   1   0   56.59   18.50
 -14   1   0   65.69   26.50
  14  -1   0   99.19   20.00
  14  -1   0   40.00   16.30
 -14  -1   0  107.29   23.90
 -14  -2   0   32.10   24.70
  14   2   0   48.30   26.70
 -14   2   0    5.60   22.80
 -14  -2   0   70.09   31.10
  14   2   0   21.10   24.30
  14  -2   0   19.80   21.70
  14  -3   0   82.99   34.50
  14  -3   0  145.59   29.90
  14   3   0  223.48   43.30
 -14  -3   0  250.57   49.90
  14   3   0  141.29   51.19
 -14   3   0  159.98   34.90
  14   0  -1  720.33   64.49
 -14   0  -1  739.53   58.99
  14   0   1  690.03   57.39
 -14   0   1  624.14   66.99
  14   0   1  666.83   64.19
  14   0  -1  720.73   57.09
 -14   0  -1  683.43   67.89
  14   1  -1    7.10   20.70
 -14   1   1   16.70   24.20
  14   1  -1   -6.20   15.70
  14  -1   1   31.90   17.40
 -14  -1  -1   10.60   27.60
  14  -1   1   15.70   15.00
  14   1   1    1.40   15.30
  14  -1  -1   10.10   15.90
 -14   1  -1  -19.00   19.30
 -14  -1   1    2.40   20.20
 -14  -1   1   19.20   25.30
  14   1   1   10.70   21.60
  14  -1  -1    5.00   14.10
  14  -2   1  458.25   70.79
 -14   2   1  286.37   45.70
  14   2  -1  320.17   39.90
  14   2  -1  372.96   48.40
 -14  -2  -1  376.66   40.70
 -14  -2  -1  392.86   56.79
  14  -2   1  354.56   38.00
  14   2   1  286.27   41.10
 -14  -2   1  364.16   57.29
 -14   2  -1  304.27   49.00
 -14  -2   1  376.46   41.20
  14  -2  -1  345.47   37.00
  14  -2  -1  378.36   48.90
  14   2   1  395.06   65.89
  14   3  -1   77.49   38.70
 -14   3   1   76.79   36.20
 -14  -3  -1  112.99   55.19
  14  -3   1   30.60   40.40
 -14  -3  -1   32.50   35.30
  14  -3   1   48.30   25.60
 -14  -3   1   70.79   38.70
  14   3   1   56.99   29.10
  14  -3  -1   56.59   25.90
  14  -3  -1   -6.10   22.80
  14   3   1   70.99   30.60
 -14   3  -1  105.89   33.70
 -14  -3   1   66.99   31.70
 -14   0   2  300.97   49.90
 -14   0  -2  408.06   39.50
  14   0   2  374.66   37.20
 -14   0   2  338.17   39.30
  14   0  -2  423.26   44.50
 -14   0  -2  395.16   49.30
  14   0   2  395.76   45.20
 -14  -1  -2   84.09   27.40
 -14   1   2   70.79   28.30
  14  -1   2  121.89   21.30
  14   1  -2  113.79   23.00
 -14  -1  -2   68.79   26.10
  14  -1   2   75.39   20.70
  14   1  -2   62.99   24.40
  14   1   2   68.59   22.60
 -14  -1   2   59.59   28.50
  14  -1  -2   79.49   20.30
 -14   1  -2   58.39   28.80
 -14  -1   2   91.69   24.10
  14   1   2   76.29   24.30
 -14   2   2   49.30   27.70
  14  -2   2   80.09   21.80
 -14  -2  -2   92.29   26.50
  14   2  -2   98.19   25.90
 -14  -2  -2   76.19   32.80
  14   2  -2   43.20   22.20
  14  -2   2   58.49   21.80
  14   2   2   66.79   26.50
  14  -2  -2   88.39   22.30
 -14  -2   2   93.89   30.20
  14  -2  -2   52.29   24.80
 -14  -2   2   71.59   25.30
 -14   2  -2   52.29   23.70
  14   2   2   56.29   20.10
 -14   3   2   43.40   32.10
  14  -3   2   43.80   29.70
  14   3  -2  135.49   34.40
 -14  -3  -2  112.49   34.00
 -14  -3  -2   97.09   38.50
  14  -3   2   74.49   26.40
  14   3  -2   52.89   29.80
 -14   3  -2   77.99   30.00
 -14  -3   2   79.79   36.10
  14  -3  -2   32.40   23.30
  14  -3  -2   45.30   25.90
 -14  -3   2   35.40   30.00
  14   3   2   39.50   28.60
 -14   0  -3 1311.27  112.49
  14   0   3 1544.65  120.39
 -14   0   3 1709.13  124.79
  14   0   3 1619.94  112.99
 -14   0   3 1549.54  113.79
  14   0  -3 1393.96  119.59
  14   0  -3 1377.16  112.09
 -14   0  -3 1613.44  134.99
  14   1  -3   -4.30   17.90
  14  -1   3   -6.30   14.80
 -14  -1  -3    2.50   22.60
  14  -1   3   20.30   17.80
  14   1  -3    8.10   19.10
 -14  -1  -3   -6.30   21.40
 -14   1   3   -6.90   22.60
  14   1   3    4.10   22.20
 -14  -1   3    9.60   20.80
  14  -1  -3   14.50   14.30
  14   1   3   -2.50   19.20
 -14  -1   3  -10.10   23.70
  14  -1  -3   22.40   17.10
 -14   1  -3   -0.40   20.60
 -14   2   3  936.61   93.19
  14   2  -3  732.83   72.59
 -14  -2  -3  739.33   63.29
  14  -2   3  643.44   67.69
  14   2  -3  713.53   62.49
 -14  -2  -3  707.03   76.99
  14  -2   3  766.92   61.39
  14   2   3  735.83   64.39
  14   2   3  838.82   73.89
 -14   2  -3  660.03   69.89
  14  -2  -3  642.24   69.89
 -14  -2   3  827.82   79.89
 -14  -2   3  819.22   63.99
  14  -2  -3  634.64   60.49
 -14   3   3  -11.20   32.30
  14  -3   3   46.30   26.00
 -14  -3  -3   61.29   33.50
  14  -3   3   -3.30   27.10
  14   3  -3   -2.60   43.90
  14   3  -3   24.00   25.50
 -14  -3  -3  -26.30   33.40
 -14   3  -3  -10.30   35.00
  14   3   3   19.80   28.40
  14  -3  -3   14.30   41.40
 -14  -3   3   66.59   31.40
  14  -3  -3   18.60   25.20
  14   0   4  537.65   54.79
  14   0  -4  558.64   47.40
 -14   0   4  557.44   62.59
 -14   0  -4  507.65   58.69
 -14   0  -4  514.45   48.50
  14   0   4  563.14   48.40
  14   0  -4  519.85   54.19
 -14   0   4  562.94   50.09
 -14  -1  -4   70.29   24.50
  14   1  -4   88.39   22.10
 -14  -1  -4   69.29   28.80
 -14   1   4   51.59   26.30
  14  -1   4   49.00   19.80
  14   1  -4   80.49   23.50
  14  -1   4   57.49   20.20
  14   1   4   65.29   24.50
 -14   1  -4   17.70   22.10
  14   1   4   52.59   24.30
  14  -1  -4   59.99   18.40
 -14  -1   4   49.80   27.90
 -14  -1   4   65.89   23.20
  14  -1  -4   69.19   20.00
 -14  -2  -4  216.58   42.20
  14  -2   4  243.38   38.60
 -14   2   4  340.07   48.80
  14  -2   4  293.67   32.20
  14   2  -4  225.28   34.20
 -14  -2  -4  242.88   38.90
  14   2  -4  220.18   38.70
  14  -2  -4  218.18   33.00
  14   2   4  286.97   37.10
 -14  -2   4  266.37   54.09
  14   2   4  305.57   45.60
 -14  -2   4  284.37   36.90
 -14   3   4   -7.70   28.80
 -14  -3  -4   57.69   33.80
  14  -3   4   79.29   25.40
 -14  -3  -4   15.10   39.90
  14  -3   4   57.49   31.30
  14   3  -4   25.50   26.30
  14   3   4   23.40   28.40
 -14   3  -4   28.60   31.30
 -14  -3   4   25.50   30.70
  14  -3  -4   12.70   24.70
 -14   3  -4   16.90   19.60
  14  -3  -4   33.90   24.30
  14   0   5 1300.37  106.39
  14   0   5 1361.46   99.39
 -14   0   5 1384.06  112.39
 -14   0  -5 1211.08   98.79
  14   0  -5 1366.16   98.69
  14   0  -5 1218.68  105.69
 -14   0  -5 1280.77  107.59
  14   1  -5   27.90   20.00
  14  -1   5   23.80   18.20
  14   1  -5   32.40   19.40
  14  -1   5   50.89   19.00
 -14   1   5  -30.50   26.30
 -14  -1  -5   46.60   24.10
 -14  -1   5   12.20   27.20
  14  -1  -5   20.90   18.10
  14  -1  -5   34.90   19.30
 -14  -1   5   30.40   22.90
  14   1   5    8.00   21.10
 -14   1  -5    6.20   21.50
  14   1   5   13.60   23.60
 -14  -2  -5  395.36   44.70
 -14  -2  -5  416.76   58.49
 -14   2   5  323.07   57.19
  14   2  -5  417.06   50.79
  14   2  -5  375.06   40.50
  14  -2   5  370.56   37.90
  14  -2   5  288.07   42.80
 -14  -2   5  367.26   58.29
 -14  -2   5  384.76   44.00
  14  -2  -5  371.46   39.70
  14  -2  -5  343.17   50.39
  14   2   5  299.27   47.60
  14   2   5  300.57   43.30
 -14   2  -5  358.66   49.40
 -14  -3  -5  -53.49   24.10
  14  -3   5   27.90   23.60
 -14  -3  -5   47.50   41.30
  14   3  -5  -24.30   24.20
 -14   3   5  -51.39   27.80
  14  -3   5  -21.70   30.30
 -14  -3  -5   25.50   34.50
 -14  -3  -5  -44.80   37.40
  14  -3  -5   16.70   36.70
  14  -3  -5   13.60   22.00
 -14  -3   5   23.00   33.90
  14   3   5    8.30   28.60
 -14   3  -5  -31.20   18.40
 -14   3  -5    0.10   28.00
  14  -3  -5    0.60   30.60
 -14   0   6   62.89   30.00
 -14   0  -6   57.99   33.80
 -14   0  -6  136.49   25.00
  14   0   6   57.49   21.40
  14   0   6   58.49   23.30
  14  -1   6   18.20   18.20
 -14  -1  -6  -20.80   24.80
 -14   1   6   10.90   28.30
  14  -1   6    6.20   18.30
 -14  -1  -6   12.50   23.70
  14   1  -6   -1.20   18.00
  14   1  -6   -1.60   19.40
 -14   1  -6    2.60   22.20
  14  -1  -6   14.40   18.30
  14  -1  -6    6.40   18.30
 -14  -1   6   -6.70   21.70
  14   1   6  -17.20   17.20
  14   1   6    2.60   23.10
 -14  -1   6   27.90   30.20
 -14  -2  -6   79.99   31.60
  14  -2   6   21.40   19.90
 -14  -2  -6   56.89   29.00
 -14   2   6  -14.00   31.10
  14   2  -6   -2.20   22.10
  14   2  -6   16.50   22.70
  14  -2   6   20.60   19.50
 -14   2  -6   12.80   24.60
  14  -2  -6   36.10   21.60
 -14  -2   6   -6.70   25.50
  14   2   6    5.30   26.30
  14  -2  -6   18.20   24.70
 -14  -2   6   -2.20   32.80
  14   2   6  -33.50   24.90
  14  -3   6  114.19   25.10
 -14  -3  -6   80.59   62.39
 -14  -3  -6   95.79   36.30
 -14  -3  -6   38.20   27.60
 -14   3   6  -27.30   62.19
  14   3  -6   76.89   44.70
  14  -3   6   91.29   24.90
  14  -3  -6   32.70   25.80
  14  -3  -6   52.39   32.60
 -14   3  -6   59.29   21.30
  14   3   6  114.49   32.50
  14  -3  -6   28.20   24.00
 -14   0  -7  864.01   68.09
  14   0  -7  860.71   66.69
  14   0   7  848.02   68.49
 -14   0   7  756.22   82.09
  14   0  -7  752.52   73.99
  14   0   7  751.82   73.29
 -14   0  -7  941.91   77.69
  14   1  -7   30.20   22.10
  14  -1   7   46.30   18.00
 -14  -1  -7   24.40   24.50
  14   1  -7   40.80   20.90
 -14   1   7   46.20   29.50
 -14  -1  -7    3.80   26.20
  14  -1   7   74.59   20.80
 -14  -1   7   41.50   24.30
  14  -1  -7   30.50   21.00
  14   1   7   27.20   24.70
 -14   1  -7  -16.60   34.60
  14  -1  -7   19.40   19.20
 -14  -1   7   23.00   30.70
  14   1   7   -5.60   21.20
 -14   1  -7   -2.60   24.20
 -14  -2  -7  140.79   37.60
 -14  -2  -7  144.49   32.50
  14  -2   7  150.28   23.60
 -14  -2  -7   80.69   27.00
  14   2  -7  149.49   27.10
 -14   2   7   32.50   58.89
  14  -2   7  101.99   24.70
 -14   2  -7   63.29   26.90
 -14   2  -7   92.59   24.90
  14  -2  -7   44.20   27.80
  14  -2  -7   72.59   24.50
  14   2   7  120.49   30.80
  14   0   8  139.19   31.60
 -14   0  -8  132.39   26.50
 -14   0   8  187.68   41.00
  14   0   8  104.69   25.80
  14   0  -8  145.99   34.00
  14   0  -8  142.59   24.60
 -14   0  -8  162.88   33.50
 -14   0  -8   75.99   27.10
  14  -1   8    3.40   17.40
 -14   1   8  -11.00   28.40
 -14  -1  -8   17.70   29.60
  14  -1   8   30.20   18.80
  14   1  -8   38.20   21.00
 -14  -1  -8   31.30   25.30
  14   1  -8    3.90   18.50
 -14  -1  -8   -2.60   23.90
 -14   1  -8    3.10   23.10
  14  -1  -8   70.99   42.90
 -14   1  -8  -40.40   22.80
 -14  -1   8   21.50   25.10
  14   1   8    6.20   21.00
 -14  -1   8   23.50   34.20
  14   1   8   16.60   23.90
 -14   2   8   91.49   37.90
 -14  -2  -8  122.19   33.10
 -14  -2  -8   83.39   41.00
 -14  -2  -8  108.59   29.90
  14  -2   8  166.18   24.30
  14  -2   8  147.69   28.00
  14   2   8  108.99   31.30
  14  -2  -8   26.80   28.30
 -14  -2   8  168.78   34.00
 -14   2  -8   47.80   24.60
 -14   2  -8   43.80   26.50
  14  -2  -8   79.19   27.00
  14   0  -9  264.97   32.50
 -14   0  -9  221.28   36.10
  14   0   9  200.08   36.20
 -14   0  -9  254.77   32.90
  14   0  -9  268.57   40.80
 -14   0  -9  186.98   33.20
  14   0   9  241.08   33.40
 -14  -1  -9    4.50   28.20
  14   1  -9    0.30   20.00
  14  -1   9   10.00   30.30
 -14  -1  -9    2.90   26.40
  14  -1   9    8.80   18.60
 -14   1   9   -5.60   52.99
 -14  -1  -9   24.70   26.50
  14  -1  -9   10.20   20.70
 -14   1  -9  -24.70   22.10
  14  -1  -9   -8.00   19.10
  14   1   9  -29.80   20.10
 -14   1  -9  -10.00   23.40
  14   1   9    8.90   24.20
  14  -2   9  107.09   25.80
 -14  -2  -9  138.89   33.80
 -14  -2  -9   92.09   29.30
  14  -2   9  158.78   24.50
  14  -2  -9   71.69   25.40
 -14  -2   9  213.08   37.10
  14   2   9  168.48   33.30
 -14   2  -9   56.19   26.30
  14   0 -10   54.79   23.40
 -14   0 -10   18.00   21.10
 -14   0 -10   57.69   25.90
  14   0  10   52.59   21.80
  14   0  10   30.00   21.40
 -14   0 -10   -6.90   26.00
 -14  -1 -10  -20.80   24.00
  14  -1  10    1.80   18.90
 -14  -1 -10  -24.80   32.80
 -14  -1 -10   17.00   25.50
  14   1  10   -1.70   24.60
 -14   1 -10    6.10   27.20
  14  -1 -10   27.30   20.40
 -14   1 -10   28.20   25.50
 -14  -2 -10   65.49   32.90
  14   2 -10   33.20   22.80
  14  -2  10    0.00   16.60
  14  -2  10    7.40   16.90
  14   2  10   19.50   28.50
 -14   2 -10    1.50   26.40
  14   0  11  264.37   42.40
  14   0  11  361.46   41.80
  14   0 -11  388.06   39.10
 -14   0 -11  305.57   47.50
 -14  -1 -11  -25.40   31.60
  14  -1  11    1.10   16.00
 -14  -1 -11   40.60   25.70
  14   1 -11    2.50   20.60
  14  -1  11  -33.20   17.50
  14  -1 -11   11.80   20.20
 -14   1 -11    2.60   25.30
 -14   1 -11  -42.50   22.80
  14   1  11    8.80   24.60
  14   0 -12   99.19   25.50
  14   0  12   63.29   22.20
 -15   0   0  -10.20   19.90
  15   0   0   13.10   26.80
  15   0   0   18.10   16.70
 -15   0   0  -18.10   20.10
 -15   1   0  119.39   31.40
 -15  -1   0  124.39   27.30
  15   1   0  156.58   31.10
 -15  -1   0  127.89   32.20
  15   1   0  110.69   26.50
  15  -1   0  100.79   23.50
  15  -1   0  126.99   26.80
 -15  -2   0   51.59   27.50
  15  -2   0   46.60   21.70
  15   2   0   17.60   24.80
  15  -2   0   20.60   22.50
  15   2   0   48.00   23.00
 -15   2   0   15.70   22.20
 -15  -2   0   29.00   28.60
 -15  -3   0   43.40   45.20
  15   3   0   -6.10   27.20
  15  -3   0   24.90   25.80
 -15  -3   0   73.29   33.30
 -15   3   0   13.40   33.20
  15  -3   0   24.10   31.10
  15   3   0   14.10   39.80
 -15   0   1  -29.60   20.30
  15   0  -1   15.40   18.80
  15   0   1   24.50   17.40
 -15   0  -1   -9.20   20.50
 -15   0  -1  -11.80   24.10
 -15   0   1   -1.00   20.90
  15   0   1   22.60   19.20
  15   0  -1   -6.50   15.90
  15  -1   1  831.42   64.79
  15   1  -1  749.53   94.59
  15   1  -1  809.32   66.09
  15  -1   1  699.73   70.29
 -15   1   1  748.23   77.99
 -15  -1  -1  852.61   66.89
 -15  -1  -1  827.82   77.59
  15  -1  -1  862.81   64.79
  15   1   1  774.32   65.79
 -15  -1   1  856.31   79.49
  15  -1  -1  645.44   68.99
 -15   1  -1  752.72   75.89
  15   1   1  795.02   74.19
 -15  -1   1  812.22   66.69
  15   2  -1   42.60   25.10
  15  -2   1    8.40   20.80
  15   2  -1    2.80   24.90
 -15  -2  -1   49.10   26.50
 -15   2   1   32.00   28.10
 -15  -2  -1  108.29   36.10
  15  -2  -1   47.80   21.60
 -15  -2   1   26.00   26.20
  15  -2  -1   41.70   22.30
  15   2   1   30.60   26.20
 -15   2  -1   -5.20   22.30
  15   2   1   63.39   27.40
 -15  -2   1   28.40   32.00
 -15   3   1  161.68   47.20
  15  -3   1  120.79   29.10
  15  -3   1  107.29   34.50
  15   3  -1  185.78   39.50
  15   3  -1  139.19   32.50
 -15  -3  -1  118.09   42.40
 -15  -3  -1  176.78   36.80
 -15  -3   1   80.39   36.70
  15  -3  -1  129.39   29.50
 -15  -3   1  132.99   35.10
 -15   3  -1  127.79   37.30
  15   3   1  104.69   32.80
  15   3   1   69.79   24.90
  15  -3  -1   72.19   32.50
  15   0  -2   -1.00   18.50
  15   0   2    2.60   18.90
 -15   0   2   -3.10   21.00
 -15   0   2    9.30   31.90
 -15   0  -2   10.60   21.50
  15   0   2   28.40   20.70
 -15   0  -2  -15.50   21.20
  15   0  -2    4.30   14.10
  15   1  -2  183.28   27.80
 -15   1   2  127.79   33.00
  15  -1   2   73.59   28.20
 -15  -1  -2  138.29   31.60
  15  -1   2  172.08   25.20
 -15  -1  -2  144.29   28.80
  15   1  -2  152.68   30.20
  15  -1  -2  172.68   25.80
  15  -1  -2   91.39   23.50
  15   1   2  132.29   30.90
 -15   1  -2   91.39   28.60
 -15  -1   2  139.39   28.20
  15   1   2  139.29   31.00
 -15  -1   2  174.68   35.90
 -15  -2  -2  144.79   44.70
  15   2  -2  139.69   34.90
  15   2  -2  171.08   30.30
  15  -2   2   94.49   25.70
 -15   2   2   64.79   32.10
 -15  -2  -2  125.89   31.00
  15  -2   2  139.59   25.10
 -15   2  -2  114.39   44.20
 -15  -2   2  130.59   30.30
  15   2   2  154.48   31.80
  15  -2  -2  107.09   29.60
  15   2   2   96.49   41.40
 -15  -2   2  149.19   39.20
  15  -2  -2  101.49   25.00
  15  -3   2   42.60   25.90
 -15  -3  -2   33.60   35.70
 -15   3   2  -36.70   38.10
 -15  -3  -2   58.29   33.60
  15   3  -2    2.00   30.90
  15   3  -2   -0.10   27.40
  15  -3   2   11.80   30.30
  15  -3  -2  -19.40   28.20
 -15  -3   2   15.10   32.20
 -15   3  -2  -18.00   21.10
  15   3   2   -2.30   33.10
  15  -3  -2   35.10   25.70
 -15   0   3  -18.60   20.10
 -15   0  -3  -15.90   21.90
 -15   0  -3   -9.30   21.30
  15   0   3    3.70   19.90
  15   0  -3   -1.10   18.10
 -15   0   3  -24.40   20.00
  15   0  -3   31.00   16.90
  15  -1   3  249.88   40.80
 -15  -1  -3  308.67   37.90
  15  -1   3  290.27   34.00
 -15  -1  -3  284.47   49.50
  15   1  -3  320.77   34.80
 -15   1   3  289.17   43.20
  15   1  -3  314.27   44.30
 -15  -1   3  292.67   51.09
 -15   1  -3  271.27   44.70
 -15  -1   3  318.07   38.10
  15  -1  -3  314.57   33.80
  15   1   3  250.37   44.50
  15  -1  -3  276.97   39.70
 -15  -2  -3   61.79   28.40
  15  -2   3   39.10   21.10
  15  -2   3   20.80   20.30
 -15   2   3   -0.20   28.40
  15   2  -3   53.79   26.70
 -15  -2  -3   51.59   32.50
  15   2  -3   33.90   25.30
  15   2   3   24.20   27.60
 -15  -2   3   18.60   25.70
  15   2   3   82.99   30.80
  15  -2  -3   57.39   34.20
  15  -2  -3   37.60   21.50
 -15   2  -3   34.30   24.80
 -15  -2   3   37.90   33.30
  15  -3   3   32.40   43.90
  15  -3   3   33.00   25.00
  15   3  -3   46.50   29.30
 -15  -3  -3   37.20   40.40
 -15   3   3   59.89   41.90
 -15  -3  -3   89.49   36.60
  15  -3  -3   -8.30   27.20
  15  -3  -3   80.49   27.30
  15   3   3   66.09   44.80
  15   0  -4   23.40   19.10
 -15   0  -4    9.00   23.20
  15   0  -4   21.70   16.00
  15   0   4  -14.30   17.90
  15   0   4    4.90   20.20
 -15   0   4  -16.90   20.70
 -15   0  -4   -5.20   21.90
 -15   0   4  -45.90   21.90
  15   1  -4  143.59   26.40
 -15  -1  -4  116.99   29.10
  15   1  -4  139.69   30.60
  15  -1   4  113.99   24.50
 -15   1   4  100.89   33.80
  15  -1  -4  113.29   23.10
 -15  -1   4  168.68   35.50
 -15  -1   4  183.58   29.50
  15   1   4  138.79   32.60
  15  -1  -4  104.99   26.60
 -15   1  -4   87.09   26.80
  15   1   4  148.99   33.20
  15   2  -4   71.19   26.50
 -15   2   4   32.30   28.70
  15  -2   4   79.29   24.60
  15   2  -4   36.60   27.10
 -15  -2  -4   71.79   33.50
  15  -2   4   97.59   23.40
 -15  -2  -4   80.39   30.40
  15   2   4   66.69   30.30
 -15  -2   4   71.29   33.70
  15  -2  -4   81.19   23.80
  15   2   4   78.69   29.90
 -15  -2   4   64.09   28.10
  15  -2  -4   40.70   23.60
 -15   3   4   -8.40   33.20
 -15  -3  -4   37.10   37.10
  15  -3   4   41.30   26.30
 -15  -3  -4  -51.29   41.40
  15  -3  -4   35.50   28.70
 -15   3  -4   -3.10   22.10
  15  -3  -4  -58.59   26.90
  15   3   4   35.20   45.30
 -15   0   5    8.30   26.60
 -15   0  -5   11.30   23.10
  15   0  -5   10.40   18.60
  15   0   5   34.40   21.40
 -15   0  -5   -6.50   23.30
  15   0  -5  -11.20   16.30
  15   0   5    6.20   20.30
  15  -1   5  322.57   45.50
  15   1  -5  366.96   49.40
  15  -1   5  409.66   39.30
  15   1  -5  368.76   40.00
 -15  -1  -5  376.16   44.50
 -15  -1  -5  404.36   56.19
 -15   1   5  378.66   59.79
  15  -1  -5  345.87   37.60
 -15  -1   5  490.05   60.89
  15  -1  -5  364.36   45.10
 -15  -1   5  403.36   43.40
  15   1   5  330.87   43.30
 -15  -2  -5   58.19   31.00
 -15   2   5   55.89   34.50
  15  -2   5   54.29   21.00
  15   2  -5   14.60   23.80
 -15  -2  -5   27.00   29.90
  15  -2   5   60.19   24.00
  15   2  -5   57.09   27.40
 -15  -2   5   40.10   35.90
 -15   2  -5    8.70   24.90
  15  -2  -5   11.20   23.00
  15   2   5   11.70   28.00
  15   2   5    0.00   19.30
  15  -2  -5   69.49   23.30
 -15  -3  -5   80.49   41.30
  15   3   5   68.39   47.40
  15   0  -6   23.20   19.40
  15   0   6   18.20   23.00
 -15   0  -6   -8.60   22.80
  15   0   6   16.30   18.10
  15   0  -6  -16.90   16.80
 -15   0   6    5.00   27.10
  15  -1   6  113.39   24.70
 -15  -1  -6  127.39   34.40
  15   1  -6  147.69   26.40
  15  -1   6  106.99   23.40
 -15  -1  -6  114.99   29.50
 -15   1   6  110.69   35.20
 -15  -1   6  120.59   28.10
  15   1   6  102.49   29.00
  15   1   6   79.79   29.60
 -15  -1   6  107.99   37.00
  15  -1  -6  106.89   23.70
  15  -1  -6   76.59   21.40
 -15   1  -6   99.79   29.20
  15  -2   6   72.19   22.00
 -15   2   6   55.89   31.40
 -15  -2  -6   71.99   31.70
 -15  -2  -6   13.40   28.10
  15  -2   6   63.09   23.40
  15   2   6   51.19   29.10
  15  -2  -6   52.19   23.40
 -15   2  -6   28.20   25.40
 -15   2  -6   46.10   45.90
  15   2   6   63.69   28.60
  15  -2  -6   32.40   24.80
 -15  -2   6   50.09   29.40
 -15   0  -7   17.10   25.60
  15   0  -7   62.19   41.10
 -15   0  -7    1.60   22.40
  15   0   7   10.30   18.10
  15   0   7  -10.10   23.20
 -15   0   7    0.20   28.90
  15   0  -7   14.20   19.70
 -15  -1  -7  427.46   48.70
 -15  -1  -7  476.75   60.19
  15   1  -7  507.25   45.60
  15  -1   7  563.84   44.20
  15  -1   7  525.65   51.19
  15   1  -7  486.75   54.29
  15  -1  -7  412.16   50.89
  15  -1  -7  338.27   42.10
 -15   1  -7  357.06   55.19
 -15   1  -7  419.36   70.29
  15   1   7  416.66   55.19
  15   1   7  448.26   47.10
  15  -2   7   18.00   22.20
 -15  -2  -7   62.79   32.00
  15  -2   7   73.89   22.10
 -15   2   7   38.80   39.70
  15   2  -7   50.09   25.20
 -15  -2  -7    4.50   29.50
  15   2   7   32.70   29.10
  15   2   7   32.20   29.30
 -15   2  -7    4.90   26.60
  15  -2  -7   41.10   24.40
 -15  -2   7   34.10   31.00
 -15   2  -7   29.40   25.40
  15  -2  -7   70.29   33.80
  15   0  -8  -13.30   18.20
  15   0   8   -9.40   29.60
 -15   0   8  -32.70   31.00
  15   0  -8   10.70   20.20
 -15   0  -8   -7.50   23.60
 -15   0  -8  -51.49   24.10
  15   0   8    0.10   23.30
 -15   0  -8  -27.20   25.50
 -15   1   8   76.99   33.50
  15  -1   8   95.09   23.00
 -15  -1  -8   60.39   29.40
 -15  -1  -8   -4.10   47.10
  15  -1   8   67.69   21.80
  15   1  -8   46.80   22.90
  15  -1  -8   31.30   20.70
  15   1   8   83.19   26.00
 -15   1  -8   -8.40   25.80
  15   1   8   69.49   27.80
  15  -1  -8   55.89   24.30
 -15   1  -8    4.70   26.20
 -15  -2  -8   48.00   32.30
  15  -2   8    0.60   22.50
 -15  -2  -8   -9.60   25.70
  15   2  -8   10.30   23.50
  15  -2   8   39.60   21.40
  15  -2  -8   20.90   22.40
 -15  -2   8    9.20   32.10
  15  -2  -8   -6.30   26.50
 -15   2  -8  -17.40   26.10
  15   2   8   17.50   30.30
  15   0   9  -18.70   19.70
 -15   0  -9  -14.60   25.20
  15   0   9  -17.00   22.30
 -15   0  -9   -4.10   22.40
 -15   0  -9    2.70   27.10
  15   1  -9  279.47   34.20
  15  -1   9  237.88   30.20
  15  -1   9  172.38   31.50
 -15  -1  -9  195.18   33.30
 -15  -1  -9  141.19   38.40
 -15  -1  -9  237.78   35.00
 -15   1  -9  190.28   34.70
  15  -1  -9  213.78   31.60
 -15   1  -9  155.28   40.70
  15   1   9  218.48   35.00
  15   1   9  150.28   33.90
  15   2  -9   21.80   33.60
 -15  -2  -9   62.39   33.60
  15  -2   9   30.80   22.60
  15   2   9   15.90   28.90
  15   0  10  -19.60   23.30
 -15   0 -10  -19.10   21.10
  15   0  10    9.20   19.90
 -15   0 -10  -56.49   27.00
 -15   0 -10  -25.10   24.70
  15   0 -10   19.10   22.20
  15   1 -10   51.59   24.50
 -15  -1 -10   -6.00   41.00
 -15  -1 -10   65.79   30.90
 -15   1 -10  -13.90   25.60
 -15   1 -10   74.99   32.10
  15  -1 -10   28.10   21.10
  15   1  10    9.30   25.80
 -15   0 -11  -51.59   29.30
  15   0  11    4.10   22.10
  15   0  11  -35.00   19.70
  15   0 -11   -2.00   23.10
 -16   0   0  572.44   66.29
 -16   0   0  627.94   56.69
  16   0   0  617.04   54.09
  16   0   0  657.63   63.39
  16  -1   0   78.69   21.70
  16   1   0   66.19   25.60
  16   1   0   43.60   23.00
 -16  -1   0  102.29   27.90
  16  -1   0   46.80   20.80
 -16   1   0   49.10   25.20
 -16  -1   0   71.69   45.30
 -16   2   0  168.88   38.20
  16   2   0  323.87   48.90
  16  -2   0  134.39   31.80
  16  -2   0  232.58   34.40
  16   2   0  278.27   36.80
 -16  -2   0  236.18   36.70
 -16  -2   0  188.68   44.50
  16  -3   0   21.10   26.10
  16   3   0   15.60   22.20
 -16  -3   0   23.20   43.70
 -16  -3   0   52.49   44.00
  16   3   0    3.00   33.70
 -16   0  -1  218.48   39.30
  16   0   1  276.47   41.40
  16   0   1  229.58   31.70
 -16   0  -1  283.27   35.60
  16   0  -1  192.18   34.20
 -16   0   1  253.67   42.00
 -16   0   1  294.97   36.50
  16   0  -1  218.68   32.90
  16   1  -1   14.60   19.50
 -16  -1  -1   24.40   26.50
 -16   1   1   77.49   28.40
  16  -1   1   34.20   18.50
  16  -1   1   85.19   26.70
 -16  -1  -1   26.10   30.30
  16   1  -1   52.49   24.20
  16   1   1   43.60   25.40
 -16  -1   1   35.80   25.00
 -16  -1   1   23.60   30.10
 -16   1  -1   28.70   24.50
  16  -1  -1   30.20   15.30
  16  -1  -1   61.69   21.00
  16   1   1   59.09   26.20
  16   2  -1  -15.50   24.80
 -16  -2  -1  -31.70   33.20
 -16   2   1  -26.30   24.20
  16  -2   1   33.10   22.10
  16   2  -1  -16.50   25.60
  16  -2   1   -3.80   19.40
 -16  -2  -1  -10.10   29.10
  16   2   1    9.50   27.00
  16   2   1  -31.10   26.70
  16  -2  -1   33.30   22.50
 -16  -2   1  -48.00   34.10
 -16   2  -1   -4.00   24.20
  16  -2  -1   28.40   21.50
 -16  -2   1   24.60   28.30
 -16   3   1   28.30   44.90
  16   3  -1   69.29   52.59
 -16  -3  -1   90.79   41.20
  16  -3   1  128.09   29.50
 -16  -3  -1   55.69   45.40
  16   3   1   88.59   32.80
  16   3   1   57.99   43.80
  16  -3  -1   58.99   28.20
 -16   0  -2  857.41   82.89
 -16   0  -2  989.90   75.59
 -16   0   2  779.92   83.89
 -16   0   2  870.51   73.69
  16   0  -2  915.51   72.09
  16   0   2  899.11   80.89
  16   1  -2   -0.50   21.90
 -16   1   2    2.40   39.20
  16  -1   2   37.30   20.60
  16  -1   2   -5.80   17.20
 -16  -1  -2   30.20   26.50
  16   1  -2   16.40   18.80
 -16  -1  -2   -8.90   28.10
 -16   1  -2   -1.00   22.70
  16   1   2   15.70   24.00
  16   1   2   -0.80   25.10
 -16  -1   2   34.00   25.50
  16  -1  -2   25.90   19.50
  16  -1  -2   13.60   16.00
 -16  -1   2   -7.20   29.80
 -16   2   2  289.17   59.29
  16  -2   2  297.67   34.90
 -16  -2  -2  269.87   43.20
 -16  -2  -2  205.68   44.40
  16   2  -2  322.57   41.40
  16   2  -2  316.87   51.29
 -16  -2   2  311.97   41.90
  16   2   2  281.77   50.59
  16   2   2  281.27   40.40
 -16  -2   2  276.57   46.50
  16  -2  -2  258.17   36.40
  16  -3   2   23.40   26.40
 -16  -3  -2   57.49   36.40
  16   3   2  -13.80   30.90
  16  -3  -2   30.70   30.20
 -16   0   3    1.90   21.90
 -16   0   3   -2.40   25.00
 -16   0  -3   -2.10   28.60
 -16   0  -3   -6.00   21.50
  16   0  -3   36.90   21.50
  16   0  -3   27.70   21.30
  16   0   3   25.10   21.90
  16   0   3   13.60   19.70
  16   1  -3    7.50   20.10
 -16   1   3   33.00   27.50
  16  -1   3   24.40   18.70
  16  -1   3   56.39   21.40
 -16  -1  -3   18.10   28.50
  16   1  -3   34.50   22.00
 -16  -1  -3   20.60   27.60
 -16  -1   3   29.30   25.90
 -16  -1   3   38.40   30.30
  16   1   3   18.90   26.50
  16   1   3  -11.00   20.20
  16  -1  -3   41.70   20.60
 -16   1  -3   10.60   25.90
  16  -1  -3   22.90   16.80
 -16   2   3   -5.30   30.50
  16  -2   3   21.00   23.10
  16  -2   3   -2.50   19.70
 -16  -2  -3    9.40   48.50
 -16  -2  -3    6.30   30.50
  16   2  -3  -32.40   24.90
 -16   2  -3  -28.20   23.40
  16  -2  -3  -19.60   21.60
  16  -2  -3   20.70   22.60
  16   2   3  -13.40   28.20
 -16  -2   3   -5.70   34.20
  16   2   3   -6.50   20.20
  16   0   4  644.94   57.79
  16   0  -4  695.53   56.59
 -16   0  -4  636.24   58.89
 -16   0   4  663.93   71.89
 -16   0  -4  557.54   94.79
  16   0   4  619.84   65.69
  16   0  -4  683.33   65.29
  16   1  -4    7.00   22.00
  16  -1   4    8.40   18.50
 -16   1   4  -46.70   25.20
  16  -1   4    6.70   20.40
 -16  -1  -4    6.80   27.40
 -16  -1  -4  -42.30   27.40
  16   1  -4   30.40   21.00
 -16  -1   4    2.40   30.70
 -16  -1   4   -3.10   23.80
  16  -1  -4   -1.30   18.10
  16   1   4    0.90   25.80
  16   1   4   12.40   23.70
 -16   1  -4   -9.00   23.80
  16  -1  -4    7.00   14.10
  16  -2   4  270.77   34.40
 -16  -2  -4  265.37   39.70
 -16  -2  -4  204.38   46.70
  16   2  -4  178.58   34.40
  16  -2   4  243.38   42.10
 -16   2   4  182.28   45.10
  16   2   4  204.18   38.40
  16   2   4  277.57   39.90
 -16  -2   4  283.67   42.60
 -16  -2   4  355.16   61.39
  16  -2  -4  237.98   34.80
  16  -2  -4  133.19   35.10
 -16   0   5   38.80   27.10
  16   0   5   35.10   20.10
 -16   0  -5    4.60   25.20
  16   0   5   21.70   24.30
  16   0  -5   43.60   19.20
  16   0  -5   34.80   20.90
 -16   0  -5   21.60   25.80
 -16  -1  -5   78.69   30.50
  16   1  -5   73.19   24.40
  16  -1   5   58.29   23.30
 -16  -1  -5    6.50   28.60
  16   1  -5   80.59   29.30
 -16   1   5   73.69   33.90
  16  -1   5   87.99   23.60
 -16  -1   5   73.89   27.90
  16  -1  -5   62.99   21.40
  16   1   5   63.19   29.90
  16  -1  -5   29.80   20.20
  16   1   5   89.59   27.40
 -16  -2  -5   33.40   32.20
  16  -2   5   24.60   21.80
 -16   2   5  -29.50   29.70
 -16  -2  -5  -29.80   32.10
  16  -2   5   25.80   22.30
  16   2  -5    5.50   25.10
  16   2   5    4.00   29.90
 -16   2  -5    4.10   28.20
  16   2   5   53.29   31.10
  16  -2  -5   50.49   25.60
  16  -2  -5   35.40   23.80
 -16  -2   5   22.90   29.80
 -16   0   6  305.67   75.19
  16   0   6  325.17   40.40
 -16   0  -6  291.87   40.80
  16   0  -6  345.97   45.10
  16   0   6  304.57   44.70
  16   0  -6  311.87   38.00
  16  -1   6    1.90   19.40
  16  -1   6    8.70   21.80
 -16   1   6   -3.30   31.70
  16   1  -6   11.80   22.20
  16   1  -6   14.10   22.20
 -16  -1  -6   25.00   32.00
 -16  -1  -6   20.20   36.80
  16   1   6  -21.40   22.30
 -16  -1   6   -8.80   28.20
  16   1   6   -1.10   41.40
  16  -1  -6   24.20   20.70
 -16   1  -6   -7.80   24.10
 -16  -1   6  -13.30   34.40
  16  -1  -6   -2.60   17.30
  16  -2   6  243.68   33.10
  16  -2   6  202.58   36.00
 -16  -2  -6  266.17   40.60
 -16  -2  -6  169.08   40.90
  16  -2  -6  158.88   34.70
 -16   2  -6  135.79   40.20
  16  -2  -6  161.28   30.20
 -16   2  -6  166.98   33.40
  16   2   6  268.87   39.60
 -16  -2   6  275.27   41.20
 -16   0  -7   66.99   26.40
  16   0  -7   30.80   22.90
  16   0   7   42.40   26.80
  16   0  -7   59.29   23.10
 -16   0  -7   81.99   29.10
  16   0   7   77.69   25.40
 -16   0   7  107.49   37.30
 -16   1   7   28.40   34.10
  16  -1   7   32.70   20.90
  16  -1   7   73.19   24.30
 -16  -1  -7   40.60   31.70
  16   1   7    8.00   47.30
  16   1   7   12.70   25.40
 -16   1  -7    3.30   28.30
 -16   1  -7   45.10   27.60
  16  -1  -7   38.80   23.90
 -16  -1   7   42.30   28.80
 -16  -2  -7    6.30   27.40
  16   2  -7   24.10   26.10
  16  -2   7   50.79   22.70
  16  -2   7   21.40   27.30
 -16   2   7    9.70   35.40
 -16  -2  -7   27.90   27.80
 -16  -2  -7   58.79   34.70
  16   2   7   28.20   28.30
  16  -2  -7   38.20   25.60
 -16   2  -7   39.10   30.60
  16  -2  -7   74.19   24.40
 -16   2  -7  -45.30   45.40
  16   2   7   35.20   30.90
 -16   0  -8  422.46   51.29
 -16   0  -8  463.15   57.29
  16   0   8  371.76   52.29
  16   0   8  412.16   45.80
 -16   0  -8  375.76   45.30
  16  -1   8  -16.80   19.50
  16  -1   8   14.60   22.00
  16   1  -8   -4.10   22.50
 -16  -1  -8   16.40   30.50
 -16  -1  -8  -14.80   25.30
  16  -1  -8   -9.50   19.00
  16   1   8   -9.00   21.10
 -16   1  -8  -10.30   29.20
 -16  -1   8   -5.10   28.90
 -16   1  -8  -35.50   24.70
  16  -1  -8   33.80   21.70
  16   1   8  -28.50   28.30
 -16   0  -9  -20.10   29.00
  16   0   9   37.90   24.50
  16   0  -9   36.90   22.60
 -16   0  -9   -1.10   24.50
  16   0   9   25.50   25.00
 -16   0  -9    4.30   26.40
  16   1  -9    3.70   23.40
 -16  -1  -9    7.40   29.00
  16  -1   9   16.00   21.20
 -16  -1  -9   28.80   31.50
  16  -1   9   14.40   23.20
  16   1   9    3.60   28.10
 -16   1  -9  -48.10   28.30
  16  -1  -9   18.60   21.10
 -16   1  -9    3.70   27.70
  16   0 -10  225.48   41.10
  16   0  10  244.98   32.70
 -16   0 -10   49.20   39.90
  17   0   0    6.00   18.00
 -17   0   0  -18.50   25.00
 -17   0   0  -21.90   23.30
  17   0   0    8.50   22.30
 -17  -1   0  493.65   49.80
  17  -1   0  484.55   45.00
 -17  -1   0  414.16   63.89
  17   1   0  428.86   47.50
  17  -1   0  346.57   49.40
 -17   1   0  483.85   61.89
  17   1   0  421.36   56.29
 -17  -2   0  106.59   39.80
  17   2   0   51.99   28.30
  17  -2   0   53.89   23.40
  17  -2   0  108.69   26.50
 -17   2   0   97.79   35.40
  17   2   0  102.39   33.40
 -17   0   1   22.10   24.70
  17   0  -1   50.39   24.00
  17   0   1   -1.80   21.30
  17   0   1   -8.50   19.20
 -17   0  -1   -0.40   25.20
 -17   0  -1    2.00   26.00
 -17   0   1  -20.00   26.50
  17   0  -1   11.90   22.10
  17   1  -1  328.07   42.20
  17   1  -1  362.26   50.89
 -17  -1  -1  381.06   45.20
 -17  -1  -1  449.06   65.59
 -17   1   1  466.65   60.29
  17  -1   1  360.06   47.80
  17   1   1  435.46   52.19
 -17  -1   1  396.06   62.19
  17  -1  -1  360.16   40.00
  17  -1  -1  307.07   45.20
 -17  -1   1  486.25   46.90
 -17   1  -1  299.27   47.40
  17   1   1  410.96   45.30
 -17   2   1   55.39   32.10
 -17  -2  -1  -52.89   27.60
 -17  -2  -1   45.40   33.30
  17   2  -1   76.49   33.20
  17  -2   1   25.30   22.60
  17  -2   1   28.90   23.90
  17   2  -1   23.70   49.20
  17  -2  -1   21.90   21.60
  17  -2  -1   39.10   23.30
 -17  -2   1   64.99   37.60
  17   2   1   -1.10   29.30
  17   2   1   62.89   28.40
 -17   2  -1   16.70   27.90
 -17   0   2   -2.10   25.80
 -17   0  -2  -12.30   25.60
  17   0  -2   18.80   21.50
 -17   0  -2   -9.70   23.00
  17   0   2   30.90   22.70
 -17   0   2  -14.80   22.90
  17   0  -2    3.60   17.40
  17   0   2   14.70   20.80
  17   1  -2  229.28   33.30
  17  -1   2  148.89   32.60
 -17  -1  -2  209.48   36.60
 -17  -1  -2  198.08   40.00
  17   1  -2  168.88   36.30
  17  -1   2  230.78   33.90
 -17   1   2  215.28   40.90
  17   1   2  154.58   32.60
 -17  -1   2  214.38   35.20
 -17   1  -2  169.48   36.80
  17   1   2  253.97   35.80
 -17  -1   2  274.97   44.80
  17  -1  -2  191.08   29.80
  17  -2   2   59.09   30.80
  17  -2   2   76.39   24.30
 -17   2   2   22.80   34.90
  17   2  -2   60.89   41.20
 -17  -2  -2   67.59   36.90
  17   2  -2   -8.20   53.19
 -17  -2  -2  129.69   35.30
  17  -2  -2   65.59   24.80
 -17  -2   2  103.79   62.19
  17   2   2    7.80   22.60
  17   2   2   34.10   30.50
 -17  -2   2   94.69   33.10
 -17   2  -2   60.39   31.00
  17   0  -3  -27.10   17.30
  17   0   3   20.80   22.80
  17   0  -3   14.50   22.10
 -17   0  -3   10.70   24.00
 -17   0   3   -5.60   24.20
 -17   0   3  -23.50   23.20
 -17   0  -3  -14.40   26.20
  17   0   3   12.70   20.90
  17  -1   3  327.97   45.50
 -17   1   3  318.77   50.69
  17   1  -3  325.07   38.30
 -17  -1  -3  339.47   43.10
  17   1  -3  267.47   47.90
 -17  -1  -3  279.37   47.90
 -17   1  -3  219.28   41.30
 -17  -1   3  377.86   61.69
  17   1   3  248.18   43.60
  17   1   3  333.17   43.40
  17  -1  -3  315.57   44.50
 -17  -1   3  385.16   42.00
  17  -1  -3  294.17   35.80
  17  -2   3   25.40   20.90
  17   2  -3   -8.50   27.30
 -17  -2  -3  -11.40   33.10
  17  -2   3   25.70   22.90
 -17  -2  -3   36.40   33.50
  17   2  -3    6.10   26.90
  17  -2  -3   45.70   26.20
 -17   2  -3   -9.90   24.90
  17   2   3    7.90   30.60
 -17  -2   3   42.40   40.00
  17   2   3   -2.50   27.20
 -17  -2   3   20.40   31.30
  17  -2  -3   37.40   23.50
  17   0  -4   23.30   21.70
 -17   0  -4   15.00   25.90
  17   0  -4  -11.00   19.20
 -17   0  -4    1.60   26.60
 -17   0   4   44.40   28.30
  17   0   4   11.60   36.90
  17  -1   4  257.97   43.70
 -17   1   4  162.88   41.10
  17  -1   4  277.67   33.70
 -17  -1  -4  198.08   42.30
  17   1  -4  245.78   36.00
 -17  -1  -4  275.57   41.00
  17   1  -4  205.98   35.90
 -17   1  -4  184.18   36.60
  17   1   4  254.17   43.60
  17   1   4  239.38   38.00
  17  -1  -4  258.67   38.80
  17  -1  -4  267.57   34.10
 -17  -1   4  245.08   38.10
 -17  -1   4  261.37   66.69
  17  -2   4    8.50   23.40
 -17   2   4   16.40   36.60
 -17  -2  -4   43.90   44.00
  17   2  -4   34.50   27.60
 -17  -2  -4   58.69   35.20
  17  -2  -4   26.30   22.70
 -17   2  -4  -23.40   19.40
 -17  -2   4   68.89   32.60
  17   2   4   -7.20   30.50
  17   2   4   53.29   23.30
 -17   0  -5  -32.80   34.70
  17   0   5   24.10   26.70
  17   0  -5    7.40   19.80
  17   0   5   13.90   19.90
 -17   0   5    3.90   28.70
  17   0  -5   10.70   21.80
 -17   0  -5  -16.40   24.00
  17   1  -5  412.16   54.89
  17  -1   5  495.25   45.70
  17   1  -5  513.55   58.19
  17  -1   5  439.86   52.29
 -17   1   5  356.36   55.79
 -17  -1  -5  513.05   51.49
 -17  -1  -5  306.97   52.29
  17   1   5  391.96   49.00
 -17  -1   5  500.25   62.89
  17  -1  -5  348.07   48.50
  17  -1  -5  406.36   43.90
  17   1   5  381.06   56.69
 -17  -1   5  510.65   71.29
 -17  -2  -5   31.10   34.40
  17  -2   5   44.70   24.00
 -17   2   5  -17.30   37.10
  17   2  -5   11.50   26.00
 -17  -2  -5  -39.40   34.70
  17   2   5   -9.30   31.40
 -17   2  -5   -8.50   20.80
  17  -2  -5   39.20   24.90
  17  -2  -5   43.10   24.30
  17   2   5   16.80   24.60
 -17   0  -6   15.10   28.00
  17   0   6  -29.00   18.10
  17   0  -6    1.30   25.00
  17   0   6  -13.50   25.30
 -17   0   6   -3.30   29.30
  17   0  -6  -36.30   22.10
 -17   0  -6  -21.10   27.10
  17  -1   6  129.19   32.40
 -17   1   6  160.48   42.30
 -17  -1  -6  145.49   46.30
  17   1  -6  254.67   36.30
  17   1  -6  172.18   40.20
 -17  -1  -6  230.98   39.10
 -17   1  -6  108.69   35.50
  17   1   6  192.68   36.20
 -17  -1   6  265.87   38.80
  17   1   6  112.99   45.10
  17  -2   6   58.39   23.90
 -17  -2  -6   84.49   36.80
 -17   2   6   -7.10   36.10
  17   2   6  -10.00   31.70
  17  -2  -6   32.40   26.90
 -17   2  -6  -17.60   36.30
  17  -2  -6   80.09   25.80
  17   0  -7   24.40   26.80
  17   0   7   -5.60   26.00
  17   0  -7   36.60   23.80
  17   0   7    3.10   22.50
 -17   0  -7  -31.30   26.60
 -17   0  -7    6.20   26.80
 -17   1   7  190.98   48.30
  17   1  -7  293.67   36.10
 -17  -1  -7  255.57   41.30
  17  -1   7  234.38   52.09
  17  -1   7  240.38   32.70
 -17   1  -7  173.88   39.80
 -17  -1   7  289.27   41.50
  17   1   7  252.97   45.30
  17  -1  -7  184.78   31.10
  17   1   7  209.48   37.90
 -17   1  -7  152.68   36.00
 -17   0  -8  -51.79   26.50
 -17   0  -8  -38.00   23.70
  17   0   8  -17.10   26.10
 -17   0  -8   -6.40   27.80
  17   0  -8   12.50   23.90
  17   0   8   -1.10   22.00
  17   1  -8  140.99   38.80
 -17  -1  -8  147.19   37.40
  17  -1   8  147.09   29.50
  17   1   8  118.89   34.40
  17  -1  -8   66.09   40.10
  17   0   9  -36.80   24.60
 -17   0  -9  -27.00   25.40
 -18   0   0   52.19   29.50
  18   0   0   76.29   26.80
 -18   0   0   18.20   30.70
  18   0   0   72.79   25.20
  18  -1   0   33.80   21.20
  18   1   0   47.90   28.30
  18  -1   0   59.79   24.10
 -18  -1   0   48.80   31.50
 -18   1   0   37.50   30.30
 -18  -1   0   29.00   34.70
  18   1   0   28.20   21.20
  18   2   0   27.90   25.50
 -18   2   0    1.50   35.50
  18   2   0   59.99   31.90
 -18  -2   0   61.49   41.70
 -18  -2   0   77.69   35.70
  18  -2   0   82.19   27.50
  18  -2   0   54.79   25.20
  18   0   1  449.56   55.79
 -18   0   1  370.56   60.39
  18   0  -1  497.35   55.69
 -18   0  -1  441.86   61.89
 -18   0   1  472.85   50.29
  18   0   1  438.36   47.50
  18   0  -1  501.95   47.00
 -18   0  -1  458.85   49.30
 -18  -1  -1   -2.00   34.70
  18  -1   1    0.30   21.50
 -18  -1  -1   41.20   32.10
 -18   1   1    4.10   35.60
  18   1  -1   35.10   24.20
  18   1  -1   31.30   26.50
  18  -1   1   48.00   24.00
 -18   1  -1   -4.30   27.50
 -18  -1   1   76.69   34.70
  18   1   1   33.30   33.70
  18   1   1   14.30   27.60
  18  -1  -1   65.89   24.10
  18  -1  -1   -9.80   17.90
 -18  -1   1   20.20   29.40
 -18   2   1  175.08   68.09
  18  -2   1  162.18   30.10
  18   2  -1  162.98   35.70
 -18  -2  -1  233.98   54.19
  18   2  -1  160.08   49.10
 -18  -2  -1  225.18   40.90
  18   2   1   71.69   36.00
 -18  -2   1  162.68   58.69
  18  -2  -1  167.18   30.50
 -18  -2   1  187.08   40.20
  18   2   1  202.68   41.40
  18   0   2   12.00   20.80
 -18   0   2   33.10   27.90
 -18   0   2   25.00   29.20
 -18   0  -2   35.10   29.40
 -18   0  -2   19.10   30.10
  18   0  -2   61.29   27.30
  18   0   2   22.90   24.30
  18   0  -2   31.20   24.00
 -18   1   2   26.00   30.70
 -18  -1  -2  -25.10   32.60
  18  -1   2   37.10   25.70
 -18  -1  -2   -4.20   31.50
  18   1  -2   44.10   27.20
  18   1  -2   36.70   28.90
  18  -1   2   12.80   22.80
 -18  -1   2   19.10   29.90
  18   1   2   34.40   29.00
 -18  -1   2   30.20   35.40
 -18   1  -2  -26.30   22.40
  18  -1  -2   40.00   22.80
  18  -1  -2   18.80   20.00
  18   1   2  -13.70   25.40
  18  -2   2  -15.70   37.10
 -18  -2  -2   38.40   38.40
 -18  -2  -2   23.20   46.00
  18  -2   2    9.30   23.90
  18   2  -2    0.00   28.10
  18   2  -2    6.40   29.30
 -18   2   2   37.10   37.10
  18   2   2  -31.10   21.80
 -18  -2   2   17.60   34.10
  18  -2  -2   19.00   24.10
  18   2   2  -11.20   54.39
 -18   2  -2  -33.30   21.50
  18  -2  -2   -9.40   19.50
 -18  -2   2  -24.80   38.10
 -18   0  -3  435.86   58.59
 -18   0  -3  407.16   49.80
  18   0  -3  479.35   44.30
  18   0   3  368.06   54.09
  18   0   3  415.26   45.00
 -18   0   3  342.17   59.39
  18   0  -3  321.97   52.29
 -18  -1  -3  -40.90   32.80
  18  -1   3   24.10   23.40
  18   1  -3   16.90   26.50
 -18  -1  -3    5.50   32.00
 -18   1   3  -12.60   31.10
  18  -1   3    8.80   24.50
  18   1  -3  -14.80   28.50
  18  -1  -3   30.70   23.00
 -18   1  -3   -5.00   24.90
 -18  -1   3   41.40   39.40
 -18  -1   3   -4.40   47.00
  18   1   3  -16.30   25.00
  18  -1  -3    5.80   17.40
  18   1   3    0.00   28.30
 -18  -2  -3  135.39   46.30
 -18   2   3   31.00   38.60
  18  -2   3  144.39   28.80
  18   2  -3  155.38   38.30
  18  -2  -3  146.69   33.10
  18   2   3  109.89   34.90
  18  -2  -3   95.99   29.70
  18   0   4   91.79   29.30
 -18   0  -4  104.29   32.90
  18   0  -4  186.88   30.60
  18   0   4  109.79   28.70
 -18   0  -4  138.99   35.00
  18   0  -4  109.39   29.80
 -18   0   4  121.49   35.80
 -18   1   4   10.60   32.50
  18   1  -4   26.80   28.10
  18  -1   4   23.70   24.80
 -18  -1  -4   44.40   33.80
 -18  -1  -4  -30.30   35.40
  18   1  -4   50.19   26.50
  18  -1   4   58.29   24.30
 -18   1  -4  -26.30   25.80
 -18  -1   4  -45.50   36.90
  18   1   4   39.90   30.20
 -18  -1   4   29.10   31.20
  18  -1  -4    2.40   19.60
  18   1   4   26.00   23.70
  18  -2   4   51.39   24.80
  18   2   4  -15.30   53.99
  18  -2  -4   28.40   24.00
  18   0   5  270.37   38.40
  18   0   5  189.68   37.20
  18   0  -5  226.38   63.59
 -18   0  -5  308.67   41.70
 -18   0  -5  195.88   40.70
  18   0  -5  353.16   53.59
 -18   0   5  271.77   47.40
  18   1  -5   25.80   27.00
  18  -1   5   -0.90   23.20
  18   1  -5   44.40   25.80
 -18  -1  -5   -2.20   31.50
 -18  -1  -5   26.50   35.30
 -18   1   5   13.60   46.40
  18  -1   5   38.60   39.20
 -18  -1   5    2.80   30.90
  18  -1  -5   29.30   19.60
  18   1   5  -39.20   26.40
 -18   1  -5  -40.20   21.30
  18   1   5  -12.70   30.00
 -18  -1   5  -22.90   49.10
  18  -1  -5   35.40   23.30
  18   0  -6   23.50   24.80
 -18   0  -6    2.90   30.70
  18   0  -6    0.20   22.80
 -18   0  -6   -1.00   22.00
  18   0   6    6.30   23.70
 -18   0   6  -15.20   33.70
  18   0   6   14.50   31.20
 -18   1   6    9.60   36.80
  18   1  -6   18.60   25.60
  18  -1   6   35.00   24.40
 -18  -1  -6   54.19   36.40
 -18  -1  -6   24.90   21.40
  18   1   6   -5.00   30.60
  18  -1  -6   27.00   22.20
  18  -1  -6   20.40   20.10
 -18   1  -6  -42.30   25.00
  18   1   6   32.00   39.70
  18   0   7   76.99   57.79
 -18  -1  -7   46.70   36.30
  18  -1   7   27.70   24.50
  18   1   7   -6.30   30.50
  18   0   8   31.70   28.30
  19   0   0   16.40   25.30
  19   0   0  -18.40   31.30
 -19   0   0  -15.80   27.00
 -19   0   0   -4.50   27.60
  19   1   0  287.47   46.20
  19  -1   0  360.56   41.90
  19  -1   0  320.77   48.10
 -19  -1   0  336.77   52.69
 -19   1   0  361.06   53.39
 -19   0   1   -4.80   27.70
  19   0  -1   -6.00   21.60
 -19   0  -1   16.40   28.10
 -19   0  -1  -26.70   29.50
  19   0   1  -15.50   25.10
  19   0  -1   15.90   23.90
  19   0   1    8.10   25.30
 -19   0   1  -15.60   27.30
  19   1  -1    5.90   28.30
 -19  -1  -1   42.80   36.40
  19  -1   1   14.90   24.60
  19  -1   1   36.40   24.70
 -19  -1  -1   23.80   34.20
 -19   1   1  -14.10   29.10
  19  -1  -1    0.80   20.60
  19   1   1   24.40   30.30
  19  -1  -1   49.20   25.50
 -19   1  -1    3.80   33.10
  19   1   1   -4.10   28.30
 -19  -1   1    8.10   35.10
 -19  -1   1   -2.30   35.60
 -19   0   2   13.10   28.70
 -19   0  -2  -37.30   29.20
 -19   0  -2  -29.70   28.40
  19   0   2   19.70   23.50
  19   0   2   20.60   25.70
  19   0  -2   37.80   21.90
  19   0  -2   16.40   25.10
  19   1  -2  472.15   58.79
  19  -1   2  391.66   54.99
 -19   1   2  430.56   67.99
  19   1  -2  431.86   46.40
 -19  -1  -2  479.55   53.59
 -19  -1  -2  329.17   64.59
  19  -1   2  498.85   47.30
  19  -1  -2  304.97   50.59
  19   1   2  328.67   47.60
 -19   1  -2  341.17   52.99
  19   1   2  249.68   71.19
  19  -1  -2  327.37   47.80
 -19  -1   2  492.55   70.49
 -19  -1   2  497.75   51.19
  19   0   3  -18.10   23.90
 -19   0   3    1.50   28.70
  19   0  -3    5.40   22.90
  19   0   3   20.80   25.70
 -19   0  -3  -51.39   27.40
 -19   0  -3  -11.20   29.90
  19   1  -3   17.50   33.70
  19   1  -3   40.80   28.40
  19  -1   3   26.00   26.50
  19  -1   3   54.79   25.40
 -19   1   3  -21.90   34.80
 -19  -1  -3   28.30   36.00
 -19  -1  -3  -24.30   37.80
  19  -1  -3   45.20   26.00
  19   1   3   25.60   31.40
 -19  -1   3   45.50   34.50
  19  -1  -3    3.00   20.30
 -19  -1   3  -36.80   36.30
  19   1   3   63.89   27.60
  19   0  -4  -27.40   36.30
 -19   0  -4  -37.90   30.10
 -19   0   4  -39.10   28.20
  19   0   4   -1.70   27.50
  19   0  -4   19.10   25.50
  19   0   4   42.50   23.00
 -19   0  -4  -45.60   23.20
  19   1  -4  176.08   39.50
  19   1  -4  350.66   43.70
  19  -1   4  286.47   39.40
 -19  -1  -4  344.77   49.80
 -19   1   4  267.67   52.39
  19   1   4  300.97   51.49
  19  -1  -4  256.17   45.50
  19  -1  -4  274.07   37.70
  19   1   4  208.08   40.90
 -19  -1   4  277.47   60.29
  19   0   5    5.40   29.00
  19   0  -5   26.90   25.60
  19   0  -5  -28.90   22.20
 -19   0  -5    0.40   31.40
 -19   0   5  -49.80   30.30
  19   0   5  -11.00   35.60
 -19   1   5  -25.00   36.70
  19  -1   5   -9.70   23.70
 -19  -1  -5  -12.10   36.30
  19  -1  -5   12.90   24.70
  19  -1  -5  -20.60   19.50
  19   1   5   24.70   32.90
 -19   0  -6  -12.40   32.30
  19   0   6   -6.10   28.40
  20   0   0  304.87   47.80
  20   0   0  275.97   44.70
 -20   0   0  256.37   46.60
  20   1   0   -0.70   29.90
 -20  -1   0   11.90   36.50
  20  -1   0   -9.30   26.30
  20  -1   0   40.10   29.20
 -20  -1   0  -33.40   36.10
 -20   1   0    2.00   36.80
  20   0  -1   72.39   30.00
  20   0  -1  221.98   47.30
 -20   0  -1  122.99   41.90
  20   0   1  120.39   39.80
  20   0   1  134.59   31.90
 -20   0  -1  146.69   36.20
 -20   0   1   92.39   33.90
  20  -1   1   33.00   27.00
 -20  -1  -1   26.00   37.30
  20   1  -1   17.20   30.00
  20  -1  -1   63.19   47.20
  20   1   1   11.50   31.00
 -20  -1   1   43.40   36.00
 -20   0  -2  361.76   44.40
 -20   0  -2  162.98   42.00
  20   0  -2  246.78   43.70
  20   0  -2  290.07   39.30
 -20   0   2  217.48   46.70
  20   0   2  216.68   42.20
  20   0   2  273.97   38.80
  20   0   3  225.88   36.30
 -20   0  -3  208.18   39.20
  20   0  -3  161.78   40.10
  20   0  -3  239.38   36.60
 -20   0   3   93.59   69.79
   0   0   0    0.00    0.00

_computing_structure_solution     'SHELXT 2014/5 (Sheldrick, 2014)'
;
_shelx_hkl_checksum   88829

