 
data_Rb2HC3N3O3
 
_audit_creation_method            'SHELXL-2014/7'
_shelx_SHELXL_version_number      '2014/7'
_chemical_name_systematic         ?
_chemical_name_common             ?
_chemical_melting_point           ?
_chemical_formula_moiety          ?
_chemical_formula_sum
 'C12 H4 N12 O12 Rb8' 
_chemical_formula_weight          1192.03

loop_
 _atom_type_symbol
 _atom_type_description
 _atom_type_scat_dispersion_real
 _atom_type_scat_dispersion_imag
 _atom_type_scat_source
 'C'  'C'   0.0033   0.0016
 'International Tables Vol C Tables 4.2.6.8 and 6.1.1.4'
 'H'  'H'   0.0000   0.0000
 'International Tables Vol C Tables 4.2.6.8 and 6.1.1.4'
 'N'  'N'   0.0061   0.0033
 'International Tables Vol C Tables 4.2.6.8 and 6.1.1.4'
 'O'  'O'   0.0106   0.0060
 'International Tables Vol C Tables 4.2.6.8 and 6.1.1.4'
 'Rb'  'Rb'  -0.9393   2.9676
 'International Tables Vol C Tables 4.2.6.8 and 6.1.1.4'
 
_space_group_crystal_system       orthorhombic
_space_group_IT_number            63
_space_group_name_H-M_alt         'C m c m'
_space_group_name_Hall            '-C 2c 2'
 
_shelx_space_group_comment
;
The symmetry employed for this shelxl refinement is uniquely defined
by the following loop, which should always be used as a source of
symmetry information in preference to the above space-group names.
They are only intended as comments.
;
 
loop_
 _space_group_symop_operation_xyz
 'x, y, z'
 '-x, -y, z+1/2'
 '-x, y, -z+1/2'
 'x, -y, -z'
 'x+1/2, y+1/2, z'
 '-x+1/2, -y+1/2, z+1/2'
 '-x+1/2, y+1/2, -z+1/2'
 'x+1/2, -y+1/2, -z'
 '-x, -y, -z'
 'x, y, -z-1/2'
 'x, -y, z-1/2'
 '-x, y, z'
 '-x+1/2, -y+1/2, -z'
 'x+1/2, y+1/2, -z-1/2'
 'x+1/2, -y+1/2, z-1/2'
 '-x+1/2, y+1/2, z'
 
_cell_length_a                    13.429(3)
_cell_length_b                    6.695(2)
_cell_length_c                    7.259(2)
_cell_angle_alpha                 90.00(3)
_cell_angle_beta                  90.00(3)
_cell_angle_gamma                 90.00(3)
_cell_volume                      652.6(3)
_cell_formula_units_Z             1
_cell_measurement_temperature     88(2)
_cell_measurement_reflns_used    2006
_cell_measurement_theta_min       3.03
_cell_measurement_theta_max       27.52
 
_exptl_crystal_description       block
_exptl_crystal_colour             colorless
_exptl_crystal_density_meas       ?
_exptl_crystal_density_method     ?
_exptl_crystal_density_diffrn     3.033          
_exptl_crystal_F_000              552
_exptl_transmission_factor_min    0.3060 
_exptl_transmission_factor_max    0.7456
_exptl_crystal_size_max           ?
_exptl_crystal_size_mid           ?
_exptl_crystal_size_min           ?
_exptl_absorpt_coefficient_mu     14.950
_shelx_estimated_absorpt_T_min    ?
_shelx_estimated_absorpt_T_max    ?
_exptl_absorpt_correction_type    multi-scan
_exptl_absorpt_correction_T_min   ?
_exptl_absorpt_correction_T_max   ?
_exptl_absorpt_process_details    ?
_exptl_absorpt_special_details    ?
_diffrn_ambient_temperature       88(2)
_diffrn_radiation_wavelength      0.71073
_diffrn_radiation_type            MoK\a
_diffrn_source                    ?
_diffrn_measurement_device_type    'Bruker APEX-II CCD'
_diffrn_measurement_method         '\f and \w scans'
_diffrn_detector_area_resol_mean  ?
_diffrn_reflns_number             4573
_diffrn_reflns_av_unetI/netI      0.0396
_diffrn_reflns_av_R_equivalents   0.0699
_diffrn_reflns_limit_h_min        -17
_diffrn_reflns_limit_h_max        17
_diffrn_reflns_limit_k_min        -7
_diffrn_reflns_limit_k_max        8
_diffrn_reflns_limit_l_min        -9
_diffrn_reflns_limit_l_max        9
_diffrn_reflns_theta_min          3.034
_diffrn_reflns_theta_max          27.516
_diffrn_reflns_theta_full         25.242
_diffrn_measured_fraction_theta_max   0.991
_diffrn_measured_fraction_theta_full  0.988
_diffrn_reflns_Laue_measured_fraction_max    0.991
_diffrn_reflns_Laue_measured_fraction_full   0.988
_diffrn_reflns_point_group_measured_fraction_max   0.991
_diffrn_reflns_point_group_measured_fraction_full  0.988
_reflns_number_total              423
_reflns_number_gt                 354
_reflns_threshold_expression      'I > 2\s(I)'
_reflns_Friedel_coverage          0.000
_reflns_Friedel_fraction_max      .
_reflns_Friedel_fraction_full     .
 
_reflns_special_details
;
 Reflections were merged by SHELXL according to the crystal
 class for the calculation of statistics and refinement.
 
 _reflns_Friedel_fraction is defined as the number of unique
 Friedel pairs measured divided by the number that would be
 possible theoretically, ignoring centric projections and
 systematic absences.
;
 
_computing_data_collection        'Bruker APEX2'
_computing_cell_refinement        'Bruker SAINT'
_computing_data_reduction         'Bruker SAINT'
_computing_structure_solution     'SHELXS-97 (Sheldrick 2008)'
_computing_structure_refinement 'SHELXL-2014/7 (Sheldrick, 2014)'
_computing_molecular_graphics     'Bruker SHELXTL'
_computing_publication_material   'Bruker SHELXTL'
_refine_special_details           ?
_refine_ls_structure_factor_coef  Fsqd
_refine_ls_matrix_type            full
_refine_ls_weighting_scheme       calc
_refine_ls_weighting_details
'w=1/[\s^2^(Fo^2^)+(0.1083P)^2^+5.2106P] where P=(Fo^2^+2Fc^2^)/3'
_atom_sites_solution_primary      ?
_atom_sites_solution_secondary    ?
_atom_sites_solution_hydrogens    difmap
_refine_ls_hydrogen_treatment     refall
_refine_ls_extinction_method      none
_refine_ls_extinction_coef        .
_refine_ls_number_reflns          423
_refine_ls_number_parameters      40
_refine_ls_number_restraints      0
_refine_ls_R_factor_all           0.0683
_refine_ls_R_factor_gt            0.0620
_refine_ls_wR_factor_ref          0.1781
_refine_ls_wR_factor_gt           0.1721
_refine_ls_goodness_of_fit_ref    1.210
_refine_ls_restrained_S_all       1.210
_refine_ls_shift/su_max           0.000
_refine_ls_shift/su_mean          0.000
 
loop_
 _atom_site_label
 _atom_site_type_symbol
 _atom_site_fract_x
 _atom_site_fract_y
 _atom_site_fract_z
 _atom_site_U_iso_or_equiv
 _atom_site_adp_type
 _atom_site_occupancy
 _atom_site_site_symmetry_order  
 _atom_site_calc_flag
 _atom_site_refinement_flags_posn
 _atom_site_refinement_flags_adp
 _atom_site_refinement_flags_occupancy
 _atom_site_disorder_assembly
 _atom_site_disorder_group
Rb01 Rb 0.82220(5) 0.5000 0.5000 0.0190(5) Uani 1 2 d S T P . .
O002 O 0.5000 0.9415(14) 0.2500 0.020(2) Uani 1 4 d S T P . .
H2 H 0.5000 0.24(2) 0.2500 0.00(3) Uiso 1 4 d S . P . .
O003 O 0.6684(5) 0.3536(10) 0.2500 0.0175(14) Uani 1 2 d S T P . .
N004 N 0.5909(5) 0.6573(11) 0.2500 0.0159(15) Uani 1 2 d S T P . .
N005 N 0.5000 0.3602(16) 0.2500 0.014(2) Uani 1 4 d S T P . .
C006 C 0.5894(6) 0.4588(12) 0.2500 0.0088(15) Uani 1 2 d S T P . .
C007 C 0.5000 0.751(2) 0.2500 0.017(2) Uani 1 4 d S T P . .
 
loop_
 _atom_site_aniso_label
 _atom_site_aniso_U_11
 _atom_site_aniso_U_22
 _atom_site_aniso_U_33
 _atom_site_aniso_U_23
 _atom_site_aniso_U_13
 _atom_site_aniso_U_12
Rb01 0.0165(7) 0.0222(8) 0.0184(7) -0.0004(3) 0.000 0.000
O002 0.014(4) 0.008(4) 0.039(6) 0.000 0.000 0.000
O003 0.007(3) 0.024(3) 0.022(3) 0.000 0.000 0.005(2)
N004 0.007(3) 0.021(4) 0.019(3) 0.000 0.000 -0.003(3)
N005 0.006(4) 0.006(5) 0.030(6) 0.000 0.000 0.000
C006 0.007(3) 0.010(3) 0.009(4) 0.000 0.000 -0.003(3)
C007 0.011(6) 0.024(6) 0.015(6) 0.000 0.000 0.000
 
_geom_special_details
;
 All esds (except the esd in the dihedral angle between two l.s. planes)
 are estimated using the full covariance matrix.  The cell esds are taken
 into account individually in the estimation of esds in distances, angles
 and torsion angles; correlations between esds in cell parameters are only
 used when they are defined by crystal symmetry.  An approximate (isotropic)
 treatment of cell esds is used for estimating esds involving l.s. planes.
;
 
loop_
 _geom_bond_atom_site_label_1
 _geom_bond_atom_site_label_2
 _geom_bond_distance
 _geom_bond_site_symmetry_2
 _geom_bond_publ_flag
Rb01 O003 2.919(5) . ?
Rb01 O003 2.919(5) 11_566 ?
Rb01 O003 2.985(5) 7_655 ?
Rb01 O003 2.985(5) 13_656 ?
Rb01 O002 3.0244(16) 13_666 ?
Rb01 O002 3.0244(16) 5_545 ?
Rb01 N004 3.150(6) 13_666 ?
Rb01 N004 3.150(6) 7_645 ?
Rb01 C007 3.432(7) 13_666 ?
Rb01 C007 3.432(7) 5_545 ?
Rb01 C006 3.625(7) . ?
Rb01 C006 3.625(7) 11_566 ?
O002 C007 1.277(17) . ?
O002 Rb01 3.0244(16) 13_666 ?
O002 Rb01 3.0244(16) 14_456 ?
O002 Rb01 3.0244(16) 6_664 ?
O002 Rb01 3.0244(16) 5_455 ?
O003 C006 1.274(9) . ?
O003 Rb01 2.919(5) 10_556 ?
O003 Rb01 2.985(5) 6_654 ?
O003 Rb01 2.985(5) 13_656 ?
N004 C006 1.329(10) . ?
N004 C007 1.372(10) . ?
N004 Rb01 3.150(6) 13_666 ?
N004 Rb01 3.150(6) 6_664 ?
N005 C006 1.370(9) 3_655 ?
N005 C006 1.370(9) . ?
N005 H2 0.78(15) . ?
C006 Rb01 3.625(7) 10_556 ?
C007 N004 1.372(10) 3_655 ?
C007 Rb01 3.432(7) 13_666 ?
C007 Rb01 3.432(7) 14_456 ?
C007 Rb01 3.432(7) 6_664 ?
C007 Rb01 3.432(7) 5_455 ?
 
loop_
 _geom_angle_atom_site_label_1
 _geom_angle_atom_site_label_2
 _geom_angle_atom_site_label_3
 _geom_angle
 _geom_angle_site_symmetry_1
 _geom_angle_site_symmetry_3
 _geom_angle_publ_flag
O003 Rb01 O003 89.93(19) . 11_566 ?
O003 Rb01 O003 85.31(12) . 7_655 ?
O003 Rb01 O003 98.13(9) 11_566 7_655 ?
O003 Rb01 O003 98.13(9) . 13_656 ?
O003 Rb01 O003 85.31(12) 11_566 13_656 ?
O003 Rb01 O003 175.2(2) 7_655 13_656 ?
O003 Rb01 O002 167.2(2) . 13_666 ?
O003 Rb01 O002 98.17(10) 11_566 13_666 ?
O003 Rb01 O002 103.22(19) 7_655 13_666 ?
O003 Rb01 O002 72.82(18) 13_656 13_666 ?
O003 Rb01 O002 98.17(10) . 5_545 ?
O003 Rb01 O002 167.2(2) 11_566 5_545 ?
O003 Rb01 O002 72.82(18) 7_655 5_545 ?
O003 Rb01 O002 103.22(19) 13_656 5_545 ?
O002 Rb01 O002 75.73(6) 13_666 5_545 ?
O003 Rb01 N004 149.89(19) . 13_666 ?
O003 Rb01 N004 70.08(15) 11_566 13_666 ?
O003 Rb01 N004 75.93(12) 7_655 13_666 ?
O003 Rb01 N004 102.23(13) 13_656 13_666 ?
O002 Rb01 N004 42.9(2) 13_666 13_666 ?
O002 Rb01 N004 98.48(17) 5_545 13_666 ?
O003 Rb01 N004 70.08(15) . 7_645 ?
O003 Rb01 N004 149.89(19) 11_566 7_645 ?
O003 Rb01 N004 102.23(13) 7_655 7_645 ?
O003 Rb01 N004 75.93(12) 13_656 7_645 ?
O002 Rb01 N004 98.48(17) 13_666 7_645 ?
O002 Rb01 N004 42.9(2) 5_545 7_645 ?
N004 Rb01 N004 136.5(3) 13_666 7_645 ?
O003 Rb01 C007 169.8(2) . 13_666 ?
O003 Rb01 C007 90.01(14) 11_566 13_666 ?
O003 Rb01 C007 84.63(19) 7_655 13_666 ?
O003 Rb01 C007 92.0(2) 13_656 13_666 ?
O002 Rb01 C007 21.7(3) 13_666 13_666 ?
O002 Rb01 C007 80.27(11) 5_545 13_666 ?
N004 Rb01 C007 23.6(2) 13_666 13_666 ?
N004 Rb01 C007 113.64(18) 7_645 13_666 ?
O003 Rb01 C007 90.01(14) . 5_545 ?
O003 Rb01 C007 169.8(2) 11_566 5_545 ?
O003 Rb01 C007 92.0(2) 7_655 5_545 ?
O003 Rb01 C007 84.63(19) 13_656 5_545 ?
O002 Rb01 C007 80.27(11) 13_666 5_545 ?
O002 Rb01 C007 21.7(3) 5_545 5_545 ?
N004 Rb01 C007 113.64(18) 13_666 5_545 ?
N004 Rb01 C007 23.6(2) 7_645 5_545 ?
C007 Rb01 C007 91.8(2) 13_666 5_545 ?
O003 Rb01 C006 18.75(15) . . ?
O003 Rb01 C006 74.13(12) 11_566 . ?
O003 Rb01 C006 78.03(15) 7_655 . ?
O003 Rb01 C006 106.28(16) 13_656 . ?
O002 Rb01 C006 172.30(11) 13_666 . ?
O002 Rb01 C006 111.75(7) 5_545 . ?
N004 Rb01 C006 131.56(17) 13_666 . ?
N004 Rb01 C006 88.61(15) 7_645 . ?
C007 Rb01 C006 154.4(2) 13_666 . ?
C007 Rb01 C006 107.35(11) 5_545 . ?
O003 Rb01 C006 74.13(12) . 11_566 ?
O003 Rb01 C006 18.75(15) 11_566 11_566 ?
O003 Rb01 C006 106.28(16) 7_655 11_566 ?
O003 Rb01 C006 78.03(15) 13_656 11_566 ?
O002 Rb01 C006 111.75(7) 13_666 11_566 ?
O002 Rb01 C006 172.30(11) 5_545 11_566 ?
N004 Rb01 C006 88.61(15) 13_666 11_566 ?
N004 Rb01 C006 131.56(17) 7_645 11_566 ?
C007 Rb01 C006 107.35(11) 13_666 11_566 ?
C007 Rb01 C006 154.4(2) 5_545 11_566 ?
C006 Rb01 C006 60.84(13) . 11_566 ?
C007 O002 Rb01 97.44(18) . 13_666 ?
C007 O002 Rb01 97.44(18) . 14_456 ?
Rb01 O002 Rb01 165.1(3) 13_666 14_456 ?
C007 O002 Rb01 97.44(18) . 6_664 ?
Rb01 O002 Rb01 73.74(4) 13_666 6_664 ?
Rb01 O002 Rb01 104.27(6) 14_456 6_664 ?
C007 O002 Rb01 97.44(18) . 5_455 ?
Rb01 O002 Rb01 104.27(6) 13_666 5_455 ?
Rb01 O002 Rb01 73.74(4) 14_456 5_455 ?
Rb01 O002 Rb01 165.1(3) 6_664 5_455 ?
C006 O003 Rb01 113.8(4) . . ?
C006 O003 Rb01 113.8(4) . 10_556 ?
Rb01 O003 Rb01 76.88(16) . 10_556 ?
C006 O003 Rb01 118.3(4) . 6_654 ?
Rb01 O003 Rb01 127.9(2) . 6_654 ?
Rb01 O003 Rb01 81.87(9) 10_556 6_654 ?
C006 O003 Rb01 118.3(4) . 13_656 ?
Rb01 O003 Rb01 81.87(9) . 13_656 ?
Rb01 O003 Rb01 127.9(2) 10_556 13_656 ?
Rb01 O003 Rb01 74.87(15) 6_654 13_656 ?
C006 N004 C007 116.3(8) . . ?
C006 N004 Rb01 137.2(3) . 13_666 ?
C007 N004 Rb01 89.8(5) . 13_666 ?
C006 N004 Rb01 137.2(3) . 6_664 ?
C007 N004 Rb01 89.8(5) . 6_664 ?
Rb01 N004 Rb01 70.36(15) 13_666 6_664 ?
C006 N005 C006 122.4(10) 3_655 . ?
C006 N005 H2 118.8(5) 3_655 . ?
C006 N005 H2 118.8(5) . . ?
O003 C006 N004 122.7(7) . . ?
O003 C006 N005 117.6(7) . . ?
N004 C006 N005 119.7(8) . . ?
O003 C006 Rb01 47.4(3) . . ?
N004 C006 Rb01 84.9(4) . . ?
N005 C006 Rb01 142.4(3) . . ?
O003 C006 Rb01 47.4(3) . 10_556 ?
N004 C006 Rb01 84.9(4) . 10_556 ?
N005 C006 Rb01 142.4(3) . 10_556 ?
Rb01 C006 Rb01 60.07(12) . 10_556 ?
O002 C007 N004 117.1(6) . . ?
O002 C007 N004 117.1(6) . 3_655 ?
N004 C007 N004 125.7(12) . 3_655 ?
O002 C007 Rb01 60.9(2) . 13_666 ?
N004 C007 Rb01 66.6(3) . 13_666 ?
N004 C007 Rb01 147.24(11) 3_655 13_666 ?
O002 C007 Rb01 60.9(2) . 14_456 ?
N004 C007 Rb01 147.24(11) . 14_456 ?
N004 C007 Rb01 66.6(3) 3_655 14_456 ?
Rb01 C007 Rb01 121.8(4) 13_666 14_456 ?
O002 C007 Rb01 60.9(2) . 6_664 ?
N004 C007 Rb01 66.6(3) . 6_664 ?
N004 C007 Rb01 147.24(11) 3_655 6_664 ?
Rb01 C007 Rb01 63.84(14) 13_666 6_664 ?
Rb01 C007 Rb01 88.2(2) 14_456 6_664 ?
O002 C007 Rb01 60.9(2) . 5_455 ?
N004 C007 Rb01 147.24(11) . 5_455 ?
N004 C007 Rb01 66.6(3) 3_655 5_455 ?
Rb01 C007 Rb01 88.2(2) 13_666 5_455 ?
Rb01 C007 Rb01 63.84(14) 14_456 5_455 ?
Rb01 C007 Rb01 121.8(4) 6_664 5_455 ?
 
_refine_diff_density_max    2.030
_refine_diff_density_min   -1.918
_refine_diff_density_rms    0.431

_shelx_res_file
;

    3R_0m_a.res created by SHELXL-2014/7


TITL 3R_0m_a.res in Cmcm
REM Old TITL Integration of 3R

REM SHELXT solution in Cmcm
REM R1 0.075,  Rweak 0.001,  Alpha 0.025,  Orientation a'=b, b'=a, c'=-c
REM Formula found by SHELXT:  C3 N3 O3 Rb2

CELL  0.71073  13.4289   6.6951   7.2585   90.000   90.000   90.000
ZERR    1.000   0.0030   0.0020   0.0020    0.030    0.030    0.030
LATT  7
SYMM -X, -Y, 1/2+Z
SYMM -X, Y, 1/2-Z
SYMM X, -Y, -Z
SFAC C H N O RB
UNIT 12 4 12 12 8
ACTA
TEMP -184.910
L.S. 10
BOND $H
LIST 4
FMAP 2
PLAN 20
WGHT    0.108300    5.210600
SWAT    0.041596  126.7809
FVAR       0.42030
RB01  5    0.822198    0.500000    0.500000    10.50000    0.01648    0.02224 =
         0.01839   -0.00044    0.00000    0.00000
O002  4    0.500000    0.941517    0.250000    10.25000    0.01398    0.00782 =
         0.03891    0.00000    0.00000    0.00000
H2    2    0.500000    0.243261    0.250000    10.25000   -0.00081
O003  4    0.668414    0.353573    0.250000    10.50000    0.00662    0.02358 =
         0.02243    0.00000    0.00000    0.00482
N004  3    0.590892    0.657284    0.250000    10.50000    0.00739    0.02113 =
         0.01925    0.00000    0.00000   -0.00290
N005  3    0.500000    0.360240    0.250000    10.25000    0.00624    0.00598 =
         0.02951    0.00000    0.00000    0.00000
C006  1    0.589398    0.458763    0.250000    10.50000    0.00728    0.00985 =
         0.00938    0.00000    0.00000   -0.00277
C007  1    0.500000    0.750772    0.250000    10.25000    0.01126    0.02372 =
         0.01502    0.00000    0.00000    0.00000
HKLF 4

REM  3R_0m_a.res in Cmcm
REM R1 =  0.0620 for     354 Fo > 4sig(Fo)  and  0.0683 for all     423 data
REM     40 parameters refined using      0 restraints

END

WGHT      0.1088      4.7728

REM Highest difference peak  2.030,  deepest hole -1.918,  1-sigma level  0.431
Q1    1   0.8241  0.4945  0.3761  11.00000  0.05    2.03
Q2    1   0.5000  0.9418  0.3899  10.50000  0.05    0.81
Q3    1   0.7275  0.5019  0.3760  11.00000  0.05    0.78
Q4    1   0.6381  0.4926  0.3990  11.00000  0.05    0.66
Q5    1   0.6078  0.6389  0.4193  11.00000  0.05    0.65
Q6    1   0.6198  0.3702  0.0672  11.00000  0.05    0.64
Q7    1   0.6747  0.3676  0.1331  11.00000  0.05    0.61
Q8    1   0.5903  0.5595  0.3513  11.00000  0.05    0.59
Q9    1   0.5364  0.7899  0.4520  11.00000  0.05    0.59
Q10   1   0.4800  0.2017  0.4265  11.00000  0.05    0.56
Q11   1   0.6821  0.0887  0.2500  10.50000  0.05    0.47
Q12   1   0.5000  0.3379  0.3828  10.50000  0.05    0.44
Q13   1   0.4714  1.0851  0.3868  11.00000  0.05    0.43
Q14   1   0.5000  0.7279  0.4320  10.50000  0.05    0.42
Q15   1   0.5779  0.7554  0.3815  11.00000  0.05    0.33
Q16   1   0.6972  0.2138  0.1178  11.00000  0.05    0.32
Q17   1   0.7963  0.3817  0.2500  10.50000  0.05    0.32
Q18   1   0.7861  0.7186  0.6043  11.00000  0.05    0.30
Q19   1   0.6675  0.8118  0.3406  11.00000  0.05    0.28
Q20   1   0.8210  0.7124  0.6219  11.00000  0.05    0.27
;
_shelx_res_checksum   45529

_shelx_hkl_file
;
   0   4   0 3355.20  268.60
   0   6   0 2861.19  230.93
   0   8   0  860.42   75.73
  -1   5   0  613.94   52.26
   1   5   0  599.65   52.28
   1   7   0   45.79   14.74
  -1   7   0   63.91   15.13
  -2   0   0 1493.85  121.50
   2   0   0 1521.84  121.53
   2  -2   0 3659.44  289.08
   2   2   0 3311.44  288.82
   2   2   0 3903.02  289.05
  -2   2   0 3619.31  289.13
   2  -4   0 1727.41  122.66
   2   4   0 1710.21  121.49
   2   4   0 1329.23  121.38
   2   4   0 1334.74  121.91
   2   4   0 1537.18  124.14
  -2   4   0 1657.19  123.72
   2  -4   0 1411.59  122.99
   2   4   0 1527.76  121.90
  -2   6   0 1100.47   89.34
   2   6   0 1033.64   89.65
   2   8   0  362.21   39.10
  -2   8   0  376.71   38.26
   3  -3   0 7911.46  579.89
   3   3   0 6703.66  579.19
   3  -3   0 7224.94  579.72
   3   5   0 2928.66  246.23
   3   5   0 3135.33  243.14
   3  -5   0 3344.97  244.70
  -3   5   0 3225.91  245.74
   3  -5   0 3052.86  245.25
   3   5   0 2689.66  243.06
   3   7   0 1203.10  107.79
  -3   7   0 1369.14  107.42
   4   0   0 1162.35   91.46
  -4   0   0 1100.46   91.34
   4   0   0 1141.74   93.96
   4  -2   0  611.49   49.69
   4  -2   0  526.36   48.70
  -4  -2   0  638.43   49.60
   4   2   0  632.41   49.79
   4   2   0  634.71   51.84
   4   2   0  607.47   52.02
  -4   2   0  619.00   49.78
   4  -2   0  616.75   51.99
   4   4   0  102.62   13.47
   4  -4   0  100.08   12.59
   4   4   0   99.32   14.57
   4  -4   0  113.43   12.74
  -4   4   0  121.00   11.03
   4   4   0  104.17   11.89
  -4   4   0   92.46   12.29
   4   6   0  349.98   37.07
   4  -6   0  409.13   32.11
   4  -6   0  390.55   32.42
  -4   6   0  341.72   35.09
   4   8   0   16.55   18.26
  -4   8   0   41.97   13.62
   5  -1   0 8668.88  675.54
   5   1   0 8249.87  675.41
   5  -3   0 4631.95  362.67
   5  -3   0 4575.83  363.07
   5   3   0 4770.51  362.63
   5   3   0 4106.56  362.19
   5  -5   0 1986.94  144.22
   5  -5   0 1579.72  142.69
   5   5   0 1875.17  143.34
   5   5   0 1929.72  140.94
   5   5   0 1674.43  143.69
   5  -5   0 1763.45  143.86
   5   5   0 1679.00  142.73
  -5   5   0 1587.02  141.79
   5   7   0  397.76   40.65
  -5   7   0  412.00   37.71
   6   0   0 8896.72  754.59
   6   0   0 9999.00  755.26
   6  -2   0 4328.93  355.26
   6   2   0 4584.81  354.97
   6   2   0 4313.89  355.09
   6   4   0 2456.36  202.27
   6  -4   0 2507.67  203.14
   6  -4   0 2388.47  199.34
   6   4   0 2567.58  199.48
   6  -4   0 2522.06  204.65
  -6   4   0 2787.23  199.71
   6   4   0 2215.75  201.85
   6  -6   0  973.07   90.45
   6   6   0 1237.69   90.56
   6   6   0 1065.03   93.81
   6  -6   0 1312.76   94.55
   6   6   0 1243.23   93.15
   6  -6   0 1126.27   94.30
   6   6   0 1016.59   89.98
   6   6   0 1019.67   94.44
   6   8   0  643.23   60.68
   7  -1   0  220.33   20.06
   7   1   0  164.13   21.35
   7  -1   0  162.88   21.68
  -7  -1   0  210.24   19.01
   7  -1   0  181.77   22.65
   7   1   0  167.35   22.54
   7   1   0  199.34   19.90
  -7   1   0  196.67   19.45
   7  -3   0  134.22   17.77
   7   3   0  145.35   17.70
   7   3   0  132.08   18.28
   7  -3   0  130.76   15.70
   7   3   0  135.13   16.09
   7  -3   0  142.96   18.83
  -7   3   0  154.10   16.02
   7  -5   0    8.71    7.58
   7  -5   0    6.79    6.84
   7   5   0   28.19   12.45
   7   5   0    3.70    6.76
   7   5   0   13.14    7.48
   7   5   0    6.35    6.05
   7  -5   0   16.81    7.71
   7  -7   0   19.61    9.71
   7   7   0    3.66   15.30
   8   0   0 4293.74  334.79
   8   0   0 3937.54  333.64
   8   2   0 4132.01  328.04
   8   2   0 4126.35  323.67
   8  -2   0 3941.71  328.53
   8  -2   0 4143.50  323.47
   8  -2   0 4041.38  328.20
   8   2   0 3774.81  328.02
  -8  -2   0 4142.53  323.25
   8  -4   0 1810.92  149.28
   8   4   0 1854.79  153.35
   8   4   0 1700.74  153.03
   8  -4   0 1966.25  154.91
   8   4   0 1940.41  149.65
   8  -4   0 1846.62  153.44
   8   6   0 1164.63  107.90
   8  -6   0 1284.48  108.65
   8   6   0 1393.79  104.36
   8   6   0 1106.03  106.85
   8  -6   0 1261.11  104.28
   8  -6   0 1502.09  109.94
   9  -1   0 2990.99  243.82
   9   1   0 2856.09  243.56
   9  -1   0 3139.59  238.05
  -9  -1   0 2959.03  237.66
   9   1   0 3085.04  238.17
  -9   1   0 2905.80  237.84
   9  -1   0 2745.51  243.09
   9   3   0 2523.17  204.27
   9  -3   0 2470.27  205.36
  -9   3   0 2577.38  199.66
   9   3   0 2344.38  204.26
   9  -3   0 2403.20  199.20
   9   3   0 2536.88  199.62
   9   5   0 1269.02   96.50
   9  -5   0 1178.83  100.66
   9   5   0 1257.45  100.74
   9  -5   0 1212.89   96.33
   9   5   0 1028.63   99.65
   9   5   0 1043.81   98.78
   9  -5   0 1265.33  113.88
   9  -7   0  589.27   53.12
   9   7   0  440.61   53.47
   9   7   0  584.67   50.38
   9   7   0  571.81   47.18
  10   0   0 1198.99   95.48
  10   0   0 1109.60  100.75
 -10   0   0 1116.86   94.82
  10   0   0 1137.43  101.67
  10  -2   0  179.17   27.78
 -10   2   0  172.67   22.26
  10   2   0  181.54   26.20
  10  -2   0  208.18   21.86
  10   2   0  185.21   22.80
 -10  -2   0  156.98   20.69
  10   2   0  184.01   24.78
  10   4   0   83.32   16.54
  10   4   0  107.57   14.97
 -10   4   0   85.08   14.22
  10  -4   0   95.61   17.84
  10  -4   0   85.81   13.60
  10   4   0   63.32   16.09
  10   4   0   72.22   16.44
  10  -4   0   85.90   17.62
  10  -6   0   18.45   10.01
  10   6   0   35.67   11.39
  10   6   0   12.53   15.77
  10   6   0   44.34   11.04
  10  -6   0   21.47   11.24
  11  -1   0 2299.13  178.00
  11  -1   0 2100.74  184.70
 -11  -1   0 2178.20  177.44
 -11   1   0 2209.87  177.76
  11   1   0 2133.78  184.09
  11   1   0 2311.96  179.10
  11  -1   0 2031.48  184.18
  11  -3   0 3184.25  256.65
  11   3   0 2917.50  262.58
  11  -3   0 3052.10  262.45
 -11   3   0 3446.70  257.29
  11   3   0 3087.55  262.61
  11  -3   0 3426.16  265.26
  11   3   0 3219.16  257.10
  11   5   0  907.88   90.71
  11  -5   0 1100.46   88.15
  11   5   0 1095.40   93.45
  11   5   0 1127.52   88.53
  12   0   0 4374.27  355.64
  12   0   0 4450.73  347.99
 -12   0   0 4327.94  347.29
  12   0   0 4121.99  355.32
  12   2   0  951.42   95.87
  12  -2   0 1102.06   96.74
  12   2   0 1084.43   89.99
  12  -2   0 1161.12   89.78
 -12   2   0 1111.94   89.90
  12   2   0 1041.51   95.85
 -12  -2   0 1033.80   88.86
  12  -2   0 1163.42   98.66
  12  -2   0  959.45   84.84
  12  -4   0  399.51   38.82
  12   4   0  429.17   44.07
  12   4   0  358.22   41.72
 -12   4   0  499.23   40.59
  12  -4   0  432.56   46.34
  12   4   0  440.82   40.09
  12   4   0  350.09   43.46
  12  -6   0  492.61   51.98
  12   6   0  421.43   50.44
  12   6   0  546.16   50.74
  12   6   0  522.53   47.51
  12  -6   0  517.40   45.81
  13   1   0  585.36   51.62
 -13  -1   0  568.68   50.15
  13  -1   0  557.96   51.09
  13  -1   0  480.16   56.41
  13  -1   0  548.92   58.22
  13   1   0  476.82   55.74
 -13   1   0  584.65   50.81
  13   1   0  455.98   56.71
  13   3   0  104.20   22.91
  13   3   0   93.92   22.38
  13  -3   0   90.94   17.71
  13   3   0   94.58   19.08
  13  -3   0  120.57   26.56
  13   3   0   79.11   18.63
  13  -3   0  119.73   26.24
 -13   3   0   95.06   19.19
  13   5   0  179.49   25.70
  13   5   0  166.45   22.97
  13  -5   0  179.33   22.11
  13  -5   0  157.43   27.90
 -14   0   0 1827.67  150.09
  14   0   0 1881.45  150.74
  14   0   0 1701.90  158.95
  14   0   0 1864.02  166.21
  14   0   0 1782.28  147.63
 -14   2   0 1856.49  139.42
  14  -2   0 1596.83  146.42
  14  -2   0 1791.00  149.74
  14   2   0 1603.22  138.52
  14  -2   0 1685.32  138.52
  14   2   0 1491.74  146.15
  14   2   0 1624.63  146.73
  14   2   0 1699.93  139.14
  14   4   0  828.23   75.06
  14   4   0  786.47   67.98
  14  -4   0  763.35   73.92
  14  -4   0  630.60   76.55
  14   4   0  782.86   70.24
  15   1   0  169.89   26.26
  15   1   0  126.16   30.29
  15  -1   0  142.98   24.30
  15  -1   0  170.23   51.43
 -15   1   0  150.41   25.65
  15   1   0  108.09   29.27
  15   1   0  119.36   20.58
  15  -1   0  127.77   31.59
  15  -1   0  105.25   14.69
  15   3   0  276.33   38.85
  15   3   0  376.76   38.92
  15  -3   0  346.41   37.75
  15  -3   0  372.51   45.54
  15   3   0  370.60   45.04
  16   0   0  248.34   33.64
  16   0   0  292.82   45.19
  16   0   0  182.32   27.13
  16   0   0  254.93   43.53
  16  -2   0  263.72   44.51
  16   2   0  218.05   51.24
  16  -2   0  244.06   33.60
  16   2   0  263.79   35.47
  16   2   0  243.48   35.02
  16   2   0  283.41   42.18
  16  -2   0  263.32   43.34
  17   1   0 1106.88  116.29
  17   1   0 1173.83  105.15
  17  -1   0 1351.72  122.88
  17  -1   0 1138.01  117.06
  17   1   0 1347.88  118.48
  17  -1   0 1153.58  107.00
   0   0  -1    1.54    1.83
   0   0   1    0.88    1.64
   0   0  -1   -0.90    1.37
   0   0   1    1.11    1.27
   0  -2  -1  523.41   44.38
   0   2   1  539.47   44.30
   0   2   1  638.42   45.59
   0  -2   1  537.13   46.51
   0  -2  -1  559.61   45.61
   0   2  -1  593.39   46.34
   0   2  -1  496.99   44.52
   0   4   1  193.07   19.94
   0   4  -1  175.81   16.36
   0  -4   1  176.96   16.81
   0   4  -1  174.18   15.27
   0   6   1    0.07   11.11
   0   6  -1    3.62    9.35
   0   8   1   21.30   15.33
   0   8  -1   17.66   14.36
  -1   1  -1   18.90    3.27
   1  -1  -1   23.00    3.19
   1   1   1   24.72    4.21
   1  -1  -1   22.56    3.64
   1   1   1   21.18    3.37
  -1   1  -1   25.53    4.75
   1  -1  -1   29.10    4.37
   1   1  -1   25.44    3.29
   1   1  -1   31.76    5.14
  -1  -1  -1   27.83    3.78
  -1  -1  -1   25.95    4.50
   1  -1   1   23.16    3.92
  -1  -1  -1   23.88    3.37
   1   3   1   42.40    5.79
   1  -3  -1   61.81    5.23
   1  -3  -1   69.66    8.47
   1  -3  -1   49.19    6.47
   1   3   1   66.56    9.99
  -1   3  -1   57.29    7.71
  -1   3  -1   52.90    6.52
  -1  -3  -1   66.56    5.87
  -1   3   1   56.95    8.82
  -1  -3  -1   63.37    5.07
   1  -3   1   44.75    9.28
   1   3  -1   46.89    7.27
  -1   5  -1   18.55    3.67
  -1   5  -1   22.87    3.56
   1   5   1   22.52   10.68
  -1   5  -1   27.98    8.51
   1   5  -1   23.23    3.59
   1  -5   1   17.42    4.30
   1   5  -1   18.22    3.17
   1   5  -1   28.62    3.73
  -1   5   1   14.01    9.89
   1   7   1   14.66   13.78
  -1   7   1   -3.08   12.51
   1   7  -1    4.55   11.42
   2   0   1   -0.71    2.75
  -2   0  -1   -2.03    2.47
   2   0   1   -0.06    1.50
  -2   0   1    1.42    2.65
   2   0   1   -0.87    2.75
  -2   0  -1    0.68    1.69
   2   0  -1    0.42    2.49
  -2   0  -1   -2.11    2.49
  -2  -2   1    1.59    3.25
   2  -2  -1    1.71    2.10
   2  -2  -1    3.40    2.61
  -2   2  -1    2.13    3.31
  -2   2  -1    2.53    3.15
   2  -2  -1    4.87    3.05
   2   2   1    1.14    2.73
   2   2   1    4.12    5.11
   2   2   1   -0.57    3.17
   2   2  -1    2.36    3.00
  -2   2   1   -5.41    2.96
   2  -2   1   -3.57    3.39
  -2  -2  -1    3.80    4.51
  -2  -2  -1    1.42    2.71
  -2   2   1    4.75    3.02
  -2  -2  -1    0.81    2.42
   2  -2   1    1.30    4.00
   2   2  -1    1.46    2.23
   2   4   1  141.60   15.14
   2   4   1  181.16   19.88
   2  -4  -1  186.47   15.62
  -2   4  -1  205.17   17.85
  -2   4  -1  206.13   15.86
  -2   4  -1  181.75   17.07
  -2  -4   1  196.30   17.35
   2  -4  -1  194.82   16.53
   2   4   1  192.20   15.11
   2  -4  -1  185.16   14.71
   2  -4   1  147.00   18.41
  -2   4   1  176.24   19.02
   2   4  -1  145.25   15.25
   2   4  -1  168.27   17.29
  -2   6  -1   37.70   10.86
   2   6   1   18.02   12.62
  -2   6   1   19.60   11.37
   2   6  -1   24.76   11.58
   2   8   1   -8.83   14.68
  -2   8  -1   -0.14   13.59
  -2   8   1    1.86   14.08
   2   8  -1  -18.15   13.28
   3   1   1  449.96   37.54
   3  -1  -1  424.36   39.05
   3   1   1  448.30   39.41
  -3   1  -1  445.70   37.39
   3  -1  -1  476.52   37.10
  -3   1  -1  434.04   39.39
  -3  -1  -1  445.53   37.54
   3   1  -1  468.81   39.45
  -3  -1  -1  480.72   37.25
  -3   1   1  438.66   39.22
   3  -1   1  467.83   37.49
   3  -1   1  418.13   39.58
  -3  -1  -1  467.64   39.30
   3   3   1   40.94    7.50
   3   3   1   50.72    8.89
   3   3   1   43.03    5.93
   3  -3  -1   44.29    6.91
  -3  -3   1   50.31    8.69
  -3   3  -1   49.76    6.68
   3  -3  -1   50.25    8.00
  -3   3  -1   43.02    8.08
  -3   3  -1   47.96    6.47
   3  -3  -1   35.79    6.06
   3  -3   1   31.57    6.50
  -3   3   1   32.41    7.30
  -3  -3  -1   45.86    6.67
  -3  -3  -1   43.49    5.66
   3  -3   1   47.38    9.36
   3  -5  -1   24.03    4.94
  -3   5  -1   10.27    4.61
  -3   5  -1   13.23    4.52
   3   5   1   19.91   10.07
   3   5   1   11.37    2.53
   3  -5  -1   17.17    4.08
   3  -5  -1    8.49    2.79
  -3   5  -1   24.41    8.06
   3  -5   1    8.87    4.87
   3   5  -1   24.26    4.41
   3   5  -1   15.64    4.12
   3   5  -1   26.29    6.05
   3  -5   1   18.00    7.49
  -3   5   1   15.88    9.50
   3   5  -1   17.45    4.62
   3   7   1   -9.35   12.48
  -3   7  -1   -3.06   10.29
   3   7  -1   -5.76   12.22
  -3   7   1    4.23   12.25
   4   0   1    3.38    2.51
  -4   0  -1   -0.04    4.12
  -4   0   1   -2.11    4.06
   4   0   1   -4.46    4.76
  -4   0  -1   -0.05    4.38
   4   0  -1    1.35    3.83
   4   0  -1    1.91    6.80
   4   0   1    0.88    4.64
  -4  -2   1  113.57   14.43
   4   2   1  124.89   14.44
  -4   2  -1  119.23   10.20
   4  -2  -1  127.33   14.32
   4   2   1  109.07   13.99
  -4   2  -1  121.34   14.66
   4  -2  -1  135.77   12.32
  -4   2  -1  129.07   13.03
   4   2   1  121.24   12.62
  -4  -2  -1  136.96   14.17
   4  -2   1  110.17   14.95
   4  -2   1  127.43   12.92
   4   2  -1  135.34   12.64
   4   2  -1  127.38   14.25
  -4  -2  -1  137.52   12.34
   4   4   1   -2.33    4.07
   4  -4  -1   -2.22    3.55
  -4   4  -1   -1.33    4.35
  -4   4  -1    3.76    5.06
   4   4   1    2.92    8.07
   4  -4  -1   -1.92    3.73
   4   4   1    2.16    3.24
   4   4   1    2.04    4.36
  -4   4  -1    0.63    4.93
   4  -4  -1    8.04    5.09
   4   4  -1    3.72    3.54
   4  -4   1   -3.69    5.24
   4   4  -1   -0.48    4.24
  -4   4   1   -7.29    5.93
   4   4  -1    0.82    4.44
   4  -4   1    4.33    6.32
  -4   6  -1   -0.64    4.26
  -4   6  -1    6.74    8.18
   4   6   1   18.89   12.99
   4   6  -1    7.10    4.14
   4   6  -1   12.37   11.71
   4   6  -1    5.22    3.97
   4  -6   1    0.75    4.21
   4   6  -1    7.05    4.75
   4   6  -1    4.46    3.65
   4  -6   1    9.48    4.97
  -4   6   1   -4.53   10.00
   4   8   1   -6.27   16.05
  -4   8   1   20.38   12.15
   4   8  -1    4.01   17.57
   5   1   1  289.57   25.34
  -5   1  -1  277.85   28.07
  -5   1  -1  289.51   25.40
   5   1   1  274.91   28.08
   5   1   1  289.65   25.31
  -5  -1   1  273.11   28.14
   5  -1  -1  293.81   25.08
   5  -1  -1  251.22   27.26
   5  -1   1  262.71   27.91
   5  -1   1  304.94   25.48
  -5  -1  -1  274.10   27.62
  -5   1   1  252.50   27.45
  -5  -1  -1  303.43   25.09
   5   1  -1  313.82   25.10
   5   1  -1  282.79   27.58
  -5   3  -1   -3.34    2.06
   5  -3  -1    0.29    4.61
   5   3   1    4.40    5.53
   5   3   1  -10.20    7.41
  -5   3  -1   -1.03    5.13
   5   3   1    1.23    4.82
   5  -3  -1    1.40    4.66
  -5   3  -1   -6.24    5.38
   5  -3  -1    0.18    3.37
   5  -3  -1   -4.09    4.30
   5  -3   1   -2.19    5.31
   5   3  -1   -1.16    5.49
   5   3  -1   -0.44    4.01
   5  -3   1   -4.39    5.72
  -5  -3  -1    2.09    4.59
   5   5   1  591.59   48.32
   5  -5  -1  559.12   48.41
   5   5   1  470.61   48.42
   5  -5  -1  592.30   46.54
  -5   5  -1  622.53   46.93
  -5   5  -1  548.93   47.21
   5   5   1  625.43   53.82
   5   5   1  575.65   46.63
   5  -5  -1  624.88   49.86
   5   5  -1  495.13   46.14
   5   5  -1  556.53   48.85
   5   5  -1  588.83   46.73
   5   5  -1  578.71   49.62
   5  -5   1  503.30   50.84
   5   7   1   -1.49   14.13
  -5   7  -1    1.53    8.65
   5   7  -1    4.03    2.25
   5  -7   1    6.33    5.48
   5   7  -1    3.24   13.70
  -5   7   1    7.39    9.78
   5  -7   1   -1.19    4.46
   5   7  -1    5.59    3.45
   6   0  -1   -4.13    4.68
   6   0   1   -4.41    6.11
  -6   0  -1    2.63    6.94
   6   0  -1    3.27    6.09
   6   0   1   36.26    8.11
   6   0   1   -0.42    3.54
  -6   0  -1   -3.91    5.68
   6   2   1 1090.81   87.72
   6   2   1  995.46   90.87
  -6   2  -1 1055.02   91.37
   6   2   1 1074.25   88.52
   6  -2  -1  998.08   90.79
  -6   2  -1 1225.61   89.24
   6  -2  -1 1071.27   87.35
   6  -2   1  981.73   91.11
   6  -2   1 1096.63   87.82
   6   2  -1 1110.21   91.20
   6   2  -1 1118.32   87.74
  -6  -2  -1 1064.30   87.32
  -6  -2  -1 1097.87   90.95
   6  -4  -1  144.32   17.02
   6   4   1  160.92   15.57
   6   4   1  138.59   17.51
   6  -4  -1  140.92   14.32
   6  -4  -1  146.51   14.96
   6  -4  -1  143.21   17.52
   6   4   1  142.24   16.96
   6   4   1  142.04   19.93
  -6   4  -1  167.00   16.09
  -6   4  -1  136.62   17.80
   6   4  -1  136.79   17.61
   6   4  -1  149.69   17.63
   6  -4   1  127.07   15.96
   6  -4   1  113.97   18.05
   6   4  -1  171.77   15.81
  -6  -4  -1  157.84   14.45
   6  -6  -1   88.39   13.62
   6   6   1   80.97   11.09
  -6   6  -1   85.97   12.29
   6   6   1  108.95   20.26
   6  -6  -1   79.07   10.63
   6  -6  -1   76.29   10.12
  -6   6  -1  100.92   11.68
   6   6   1  114.38   12.16
   6   6   1   61.69   17.41
   6   6  -1  106.35   11.68
   6  -6   1   88.94   13.46
   6   6  -1   70.13   11.94
   6   6  -1   99.22   13.32
   6  -6   1   79.76   16.06
   6   6  -1   79.10   10.44
   6   6  -1   85.18   15.26
  -6   8  -1   44.47    9.20
   6   8   1   29.30   17.21
   6   8  -1    2.21   15.78
  -7   1  -1   96.57   13.61
   7   1   1   96.19   14.04
   7   1   1  114.43   14.01
   7  -1  -1  101.43   15.63
   7  -1  -1  103.20   13.96
   7   1   1   96.48   17.41
   7  -1  -1  107.33   17.41
  -7   1  -1  111.92   18.07
   7   1  -1  107.49   14.46
  -7  -1  -1   89.72   16.43
   7   1  -1  105.07   18.01
   7   1  -1  115.88   17.61
   7  -1   1  104.70   25.32
  -7  -1  -1  102.01   13.60
   7  -1   1  106.00   13.77
  -7   3  -1   -3.43    7.57
   7  -3  -1    3.10    3.67
  -7   3  -1    3.82    7.91
   7   3   1   16.40    9.96
   7   3   1   -3.14    5.81
   7   3   1    1.54    7.19
   7  -3  -1    2.79    6.52
   7  -3  -1    4.54    6.34
   7   3   1   -5.41    6.48
   7  -3   1   -0.81    7.22
  -7  -3  -1   11.01    6.53
   7   3  -1    1.98    6.07
   7   3  -1    2.47    7.36
   7  -3   1    3.75    7.54
   7   3  -1    2.26    7.27
   7   5   1  327.38   34.00
   7   5   1  346.88   31.83
   7  -5  -1  304.49   31.26
   7  -5  -1  355.83   32.99
   7   5   1  340.39   29.27
   7  -5  -1  347.93   28.85
   7   5   1  277.26   31.52
  -7   5  -1  371.66   29.75
   7  -5   1  275.22   29.50
   7  -5   1  354.49   34.02
   7   5  -1  321.81   32.08
   7   5  -1  311.29   32.10
   7   5  -1  345.40   29.45
   7  -5   1  288.34   33.14
   7  -7  -1    1.19    6.72
   7  -7  -1    2.22    4.56
   7   7   1   -6.15   13.68
   7   7   1   11.45    4.85
   7   7   1   14.25    5.07
   7   7  -1    1.53    5.41
   7   7  -1   13.87    6.66
   7  -7   1    8.67    9.26
   7  -7   1    9.52    7.05
   7   7  -1    5.81    6.27
   7   7  -1    2.07   14.89
   8   0   1    6.06    5.45
   8   0  -1    2.69    9.20
  -8   0  -1   -9.45    7.34
   8   0   1  -10.24    8.41
   8   0  -1   -2.02    6.94
   8   0  -1    5.64    9.36
   8   0   1    6.53    9.80
  -8   0  -1    2.32    7.53
   8   2   1   15.06    9.36
  -8   2  -1    7.89    9.17
   8  -2  -1    9.13    8.55
   8  -2  -1    9.72    8.64
  -8   2  -1   11.37    9.51
   8  -2  -1    6.48    7.83
   8   2   1    4.77    8.93
   8   2   1   31.79    9.80
   8   2  -1   13.81   10.36
   8  -2   1    9.26    9.73
  -8  -2  -1    7.19    8.12
   8  -2   1   17.46    9.69
   8   2  -1    8.28    8.00
   8   2  -1   13.07    9.51
   8   4   1   10.32    8.10
   8  -4  -1    9.92    7.39
   8   4   1    6.18    7.51
   8  -4  -1   16.61    6.95
   8   4   1   13.39    8.42
   8  -4  -1    8.58    8.20
   8   4   1    4.45   12.31
   8  -4  -1   14.95    8.99
  -8   4  -1    8.46    8.58
   8   4  -1    9.24    7.89
   8   4  -1   17.29    8.93
  -8  -4  -1    5.28    6.81
   8  -4   1    4.48    8.20
   8   4  -1    6.83    7.69
   8  -4   1   -4.10    8.54
   8   6   1    2.74   13.01
  -8   6  -1   -2.94    7.74
   8   6   1   17.96    9.28
   8   6   1   -4.54    6.82
   8  -6  -1   -5.12    7.10
   8  -6  -1    3.27    8.20
   8   6   1    9.12    7.87
   8  -6  -1   -6.48    6.90
   8   6  -1   -2.63   11.58
   8  -6   1   -0.90    8.04
   8  -6   1   16.81   10.84
   8   6  -1    1.74    8.04
   8   6  -1    2.33    5.67
   8   6  -1   -1.39    7.11
   8  -6   1   -4.61    8.03
   9  -1  -1  194.26   25.17
   9   1   1  171.40   25.13
  -9   1  -1  211.76   21.13
  -9   1  -1  184.62   25.11
   9   1   1  197.83   20.95
   9   1   1  186.24   22.36
   9  -1  -1  191.04   21.55
   9  -1  -1  177.06   23.99
  -9  -1  -1  189.98   21.14
   9  -1   1  196.67   25.90
   9  -1   1  146.57   15.89
   9   1  -1  183.88   23.86
   9   1  -1  211.83   22.06
   9   1  -1  196.02   25.44
   9  -1   1  199.97   22.36
  -9  -1  -1  187.28   25.16
  -9   3  -1    4.45    9.16
   9  -3  -1    7.79    8.92
   9   3   1    8.00    9.59
   9   3   1   13.07   10.34
   9  -3  -1    4.84    4.13
   9   3   1   -0.99   11.38
   9  -3  -1   13.75    9.90
  -9   3  -1   18.82    9.80
   9   3   1   17.36    9.39
   9   3  -1    4.19    9.64
   9  -3   1    9.79   10.41
   9   3  -1   -6.29    6.63
  -9  -3  -1    2.10    7.85
   9   3  -1    3.24    8.81
   9  -3   1    4.26    9.66
   9   5   1   -2.12    7.66
   9  -5  -1    9.62    8.49
   9   5   1    3.71   14.02
   9   5   1    6.53    7.33
   9   5   1   13.22    9.02
   9  -5  -1    7.75    9.08
  -9   5  -1    8.75    9.47
   9  -5   1    5.03    9.13
   9   5  -1    4.69    8.53
   9  -5   1    5.72    9.70
   9   5  -1    6.29    9.41
   9  -5   1   -8.49    9.47
   9   5  -1   -1.51    6.93
   9   7   1   11.96    7.94
   9   7   1    2.69    7.16
   9   7   1    7.86   16.57
   9  -7  -1   11.37    9.32
   9  -7  -1    0.55    7.61
   9   7  -1   10.52   16.89
   9  -7   1   24.07   12.78
   9   7  -1   24.76    8.54
   9   7  -1    2.50    6.50
   9   7  -1    3.68    8.69
  10   0  -1   -3.13   11.87
  10   0  -1   -1.45   10.81
  10   0  -1    5.53   10.34
  10   0   1    6.43    7.02
  10   0   1    6.56   11.28
  10   0   1    2.48   12.48
 -10   0  -1   -5.62   10.99
  10   2   1    6.98   11.88
  10  -2  -1   -7.16    9.79
  10   2   1    6.14   10.50
  10   2   1    1.74   10.71
 -10   2  -1   20.43   12.12
  10  -2  -1    0.76    9.95
  10  -2  -1    6.57    9.73
  10   2   1    8.11   10.67
  10   2  -1    3.22    9.70
  10  -2   1    2.68   11.42
  10  -2   1    9.85   12.05
 -10  -2  -1    1.10    9.97
  10   2  -1   13.09   12.15
  10   2  -1   17.27   11.53
  10  -4  -1  118.36   20.56
  10   4   1  106.59   15.66
  10   4   1   92.94   17.80
  10   4   1  101.75   19.14
 -10   4  -1  137.14   16.99
  10   4   1   91.31   19.39
  10  -4  -1   92.53   18.10
  10  -4  -1  108.51   14.67
  10  -4   1   94.89   15.48
  10  -4   1   99.47   21.37
  10  -4   1   87.26   18.73
  10   4  -1   95.04   15.57
 -10  -4  -1  127.71   15.63
  10   4  -1  107.03   19.91
  10   4  -1   92.89   17.87
 -10   6  -1   32.10   11.58
  10  -6  -1    9.42   10.81
  10   6   1   34.19   10.54
  10  -6  -1   32.93   10.50
  10   6   1   16.17   11.04
  10   6   1   23.18   16.08
  10  -6   1   28.27   12.96
  10   6  -1   38.45   11.82
  10   6  -1   26.96   11.23
  10  -6   1   25.77   11.10
  10   6  -1   27.60   16.58
 -11   1  -1   20.31   13.68
  11  -1  -1   -2.87   10.99
  11   1   1    6.83   11.74
  11   1   1   10.70   10.73
  11  -1  -1    3.84   12.80
  11  -1  -1   -4.28   11.37
  11   1   1   11.64   14.75
  11   1  -1   10.14   24.00
 -11  -1  -1   15.25   11.03
  11  -1   1    6.51   11.37
  11  -1   1    2.72    4.34
  11   1  -1    4.90   10.15
  11  -1   1   -6.70   12.80
  11  -3  -1   22.35   12.95
  11   3   1   33.84   12.58
  11   3   1   30.55   13.59
  11  -3  -1   19.60   12.03
  11   3   1   18.13   13.16
  11   3   1    9.95   15.93
  11  -3  -1   13.97   11.11
 -11   3  -1   36.22   13.82
  11  -3  -1   14.69    4.77
  11   3  -1   31.16   14.76
  11  -3   1   18.65   12.44
  11  -3   1   32.42   14.72
  11   3  -1   37.23   14.22
 -11  -3  -1   30.17   11.19
  11   3  -1   25.21   12.99
  11  -3   1   46.79   16.55
  11   5   1   12.33   11.43
  11  -5  -1    1.96   10.10
 -11   5  -1   -0.43   11.20
  11   5   1  -17.57   13.06
  11   5   1   -3.95    8.47
  11  -5  -1    6.40    9.65
  11  -5   1    7.10   10.22
  11  -5   1    3.91   11.12
  11   5  -1   11.31   11.63
  11   5  -1    3.52    9.18
  12   0   1    7.90   13.56
  12   0  -1   -2.53   13.75
  12   0   1    5.48   15.08
  12   0   1    7.92    7.94
  12   0   1   11.45   16.08
 -12   0  -1   11.95   18.61
  12   0  -1  -11.11   12.46
  12   0  -1    9.59   12.78
  12  -2  -1   92.94   16.74
  12  -2  -1  116.19   23.86
  12   2   1  100.48   19.38
  12   2   1   76.79   22.53
  12   2   1  126.88   19.09
  12  -2  -1  104.38   21.94
 -12   2  -1  106.83   18.32
  12   2  -1   99.24   22.04
  12   2  -1   91.52   22.58
  12  -2   1  105.01   25.84
  12   2  -1  105.26   18.77
  12  -2   1   86.86   23.26
  12  -2   1   98.15   19.07
 -12  -2  -1   91.13   17.44
  12   4   1   21.22   14.19
  12   4   1   24.50   16.69
 -12   4  -1   18.36   13.60
  12  -4  -1   11.80   13.73
  12  -4  -1   31.74   20.92
  12   4   1   35.31   13.51
  12  -4  -1    7.07   11.17
  12   4   1   24.15   12.85
  12   4  -1   28.45   13.50
  12   4  -1   47.06   14.16
  12  -4   1   15.40   12.36
  12  -4   1  -16.36   16.66
  12   4  -1   16.63   13.66
  12  -4   1   12.96   15.81
  12  -6  -1   18.40   11.49
  12   6   1  -15.95   17.47
  12   6   1   18.39   11.19
 -12   6  -1   -6.85   12.04
  12   6   1   10.15   12.36
  12  -6  -1    8.02   14.12
  12  -6   1    4.38   16.49
  12   6  -1    5.53   12.13
  12   6  -1  -13.24   16.84
  12   6  -1    8.22   10.57
  12  -6   1   11.76   11.87
  13   1   1    0.62   15.56
  13  -1  -1    5.20   14.05
  13   1   1   -6.27   11.36
 -13   1  -1   -3.69   13.14
  13   1   1    5.39   16.05
  13   1   1   24.22   18.83
  13  -1  -1    8.55   14.78
  13  -1  -1   26.27   15.14
 -13  -1  -1    3.65   12.89
  13   1  -1   10.48   15.97
  13   1  -1   -5.21   14.12
  13  -1   1  -18.52   13.59
  13  -1   1   -0.89   16.11
  13  -1   1    1.25   16.95
  13  -1   1    7.00    4.99
  13   1  -1   -2.81   12.84
  13   3   1   12.55   15.52
  13   3   1   -1.23   14.98
 -13   3  -1    4.63   14.93
  13  -3  -1    4.98    3.43
  13   3   1    3.44   12.44
  13  -3  -1   -4.69   16.10
  13   3   1   15.63   14.33
  13  -3  -1   13.68   12.79
  13  -3   1   -8.91   14.14
  13  -3   1   -6.49   16.28
  13  -3   1   23.84   15.95
  13   3  -1   21.08   15.01
 -13  -3  -1   16.11   13.00
  13   3  -1   13.25   14.59
  13   3  -1    9.68   12.42
 -13   5  -1   24.94   14.48
  13  -5  -1   22.63   14.79
  13   5   1   29.93   13.70
  13  -5  -1   26.11   12.73
  13   5   1   22.27   12.72
  13   5  -1   -6.61   15.06
  13  -5   1   19.42   15.82
  13   5  -1    7.76   13.81
  13   5  -1   30.73   13.75
  13  -5   1   35.86   14.16
  14   0   1   24.02   18.97
  14   0  -1   -9.88   15.13
  14   0  -1   -4.11   14.96
  14   0  -1   -5.68   14.93
  14   0   1    4.42   19.50
  14   0   1    3.06   18.86
 -14   0  -1    6.97   16.84
  14   0   1   -6.13    8.72
  14   2   1   13.02   17.50
 -14   2  -1   -7.15   15.74
  14  -2  -1    6.41   14.12
  14   2   1   26.59   18.41
  14   2   1    6.15   15.59
  14   2   1   16.02   17.30
  14  -2  -1    9.64   16.61
  14  -2  -1   17.50   14.34
  14  -2   1  -21.91   16.24
  14   2  -1   -1.69   14.12
  14   2  -1   -4.94   16.12
  14  -2   1   13.55   18.87
  14   2  -1   14.64   15.53
  14  -2   1    3.84   16.78
 -14  -2  -1   -4.94   14.41
  14   4   1  -11.17   17.56
  14  -4  -1    3.27   13.19
 -14   4  -1    6.54   16.53
  14   4   1    2.81   13.32
  14   4   1    3.60   14.85
  14  -4  -1    5.01   16.83
  14   4  -1   22.91   15.27
  14   4  -1   -9.88   11.35
  14  -4   1    8.76   15.43
  14  -4   1   36.17   14.06
  15  -1  -1   -7.72   15.85
  15   1   1   17.70   13.37
  15   1   1   10.56   19.40
  15   1   1   27.21   18.27
  15  -1  -1   30.76   17.57
 -15   1  -1  -10.33   16.51
  15   1   1   22.13   21.25
 -15  -1  -1   12.61   16.91
  15   1  -1   12.68   19.85
  15   1  -1    2.03   16.81
  15  -1   1   14.52   22.29
  15  -1   1   24.49   20.00
  15   1  -1   16.42   17.60
  15  -1   1    4.34   19.48
  15  -1   1    6.63    5.55
  15  -3  -1    3.62   15.51
  15   3   1   -9.28   17.96
  15   3   1   21.51   16.88
 -15   3  -1   10.58   16.89
  15  -3  -1  -23.19   16.71
  15   3  -1   19.13   16.69
  15   3  -1   10.49   17.03
  15  -3   1   14.47   20.22
  15  -3   1   20.52   16.54
  16   0   1   -1.48    9.24
  16   0  -1  -29.95   18.40
 -16   0  -1   -6.21   19.99
  16   0   1   -3.55   21.09
  16   0  -1   16.39   19.91
  16   0   1    3.13   23.32
  16   0   1   14.56   24.42
  16   0  -1   16.46   18.90
  16  -2  -1   19.75   20.74
  16  -2  -1   25.80   17.32
  16   2   1   14.74   20.59
  16   2   1   -4.47   17.49
 -16   2  -1   32.39   21.16
  16   2   1   33.55   20.35
 -16  -2  -1   -0.80   17.72
  16   2  -1   17.11   18.13
  16  -2   1   74.65   26.47
  16  -2   1   45.64   26.69
  16   2  -1  -33.55   17.10
  16   2  -1    3.55   27.34
  16  -2   1    4.44   19.30
  17   1   1    4.69   14.66
  17   1   1   39.09   27.57
 -17   1  -1    7.89   21.92
  17  -1  -1    4.69   19.62
  17   1   1   11.75   24.60
  17  -1  -1  -10.15   11.33
  17  -1  -1   18.77   25.26
  17  -1  -1   23.61   22.07
  17   1   1  -45.56   21.89
 -17  -1  -1   33.59   20.35
  17   1  -1   19.68   19.76
  17  -1   1   31.80    7.05
  17  -1   1  -13.69   26.95
  17   1  -1   11.98   22.56
  17   1  -1   -4.02   20.42
  17  -1   1   66.55   22.36
  17  -1   1    4.94   23.63
   0   0   2  259.79   25.04
   0   0  -2  312.57   25.12
   0   0   2  283.66   27.79
   0   0  -2  364.94   28.46
   0   2  -2 5514.97  442.91
   0   2   2 5153.19  442.11
   0  -2  -2 5943.69  442.94
   0   4  -2 5347.98  463.27
   0   4   2 6333.67  461.61
   0  -4  -2 6097.17  461.75
   0  -4   2 5372.33  464.63
   0   6  -2 1573.71  138.41
   0   6  -2 1858.21  137.39
   0   8  -2  725.48   66.98
   0   8   2  786.58   69.75
  -1  -1   2 2772.88  245.14
  -1   1  -2 3012.07  244.89
  -1   1   2 2994.22  244.85
  -1  -1  -2 3030.24  244.85
   1   1  -2 3390.02  245.55
  -1  -3   2  204.57   22.44
   1  -3  -2  210.59   19.83
   1  -3  -2  184.75   18.29
   1   3   2  173.77   17.93
   1   3   2  243.35   22.13
   1   3   2  173.69   19.80
  -1   3  -2  263.11   22.05
   1  -3  -2  220.60   21.06
  -1   3  -2  203.94   18.73
  -1  -3  -2  245.07   20.68
  -1  -3  -2  239.80   18.59
  -1  -3  -2  241.37   20.80
   1  -3   2  158.26   21.91
  -1   3   2  256.39   20.73
   1   3  -2  243.30   21.93
  -1   3   2  200.25   21.16
   1   3  -2  193.32   18.49
  -1   5  -2  690.90   59.58
   1   5   2  663.93   61.51
  -1  -5   2  730.82   60.72
  -1   5  -2  790.34   57.55
   1   5  -2  651.24   57.18
  -1   5   2  666.80   61.05
   1   5  -2  747.71   60.25
   1  -5   2  657.60   61.35
  -1   7  -2  585.81   53.63
   1   7   2  551.30   53.65
  -1   7   2  557.12   53.42
   1   7  -2  563.12   51.33
   2   0  -2 6006.48  433.62
  -2   0   2 5145.12  433.43
   2   0   2 5071.35  433.94
  -2   0  -2 5411.59  433.00
   2  -2  -2 3127.84  254.87
  -2  -2   2 3020.72  256.00
  -2   2  -2 2912.01  254.73
   2   2  -2 3211.55  255.42
  -2  -2  -2 3305.50  254.97
  -2   2   2 3400.76  255.22
   2   4   2 1985.32  154.37
  -2   4  -2 2068.89  151.69
  -2   4  -2 2000.16  154.64
   2  -4  -2 1837.01  152.34
   2  -4  -2 1899.30  150.62
  -2  -4   2 2051.72  155.84
   2  -4  -2 1852.41  153.88
  -2  -4  -2 1942.52  150.66
   2   4  -2 1652.24  151.16
  -2   4   2 1900.78  153.92
  -2  -4  -2 1977.13  152.29
   2   4  -2 1814.79  154.60
  -2   4   2 1622.44  153.18
   2   6   2  608.78   56.12
  -2   6  -2  572.97   51.51
  -2   6  -2  591.85   52.92
  -2   6  -2  655.76   50.06
  -2   6   2  538.44   55.27
   2   6  -2  650.65   52.27
   2  -6   2  604.98   54.74
   2   6  -2  643.20   50.14
   2   6  -2  600.73   49.83
  -2   8  -2  281.08   30.24
   2   8   2  241.89   32.93
  -2   8   2  285.78   33.13
   2   8  -2  207.79   31.47
  -3  -1   2 8901.65  713.43
   3   1   2 8965.41  713.38
   3  -1   2 8916.72  714.10
  -3   3  -2 4620.09  366.82
  -3  -3   2 4658.10  367.86
   3  -3  -2 4599.37  366.34
   3  -3   2 3940.32  368.18
  -3  -3  -2 4941.72  365.81
   3   3  -2 4408.45  366.69
  -3   3   2 4758.72  366.02
  -3   5  -2 2672.31  206.42
  -3  -5   2 2757.22  207.36
   3  -5  -2 2606.65  205.95
   3  -5  -2 2617.42  204.74
   3   5   2 2694.68  207.27
   3  -5  -2 2691.40  204.02
   3  -5  -2 2612.26  202.52
   3   5   2 2769.84  203.90
   3   5   2 2263.95  204.29
   3   5  -2 2305.65  203.25
   3  -5   2 2409.11  209.19
   3   5  -2 2614.52  207.20
  -3   5   2 2093.82  205.42
  -3   7  -2 1274.38  102.22
   3   7   2 1143.09  104.97
   3  -7   2 1316.76   99.91
   3   7  -2 1091.74  103.23
   3   7  -2 1355.60   98.53
   3   7  -2 1230.53   98.31
   3  -7   2 1335.53  100.60
  -3   7   2 1008.82  103.11
   4   0  -2  380.78   37.10
  -4   0  -2  377.46   33.18
  -4   0  -2  454.37   34.09
   4   0   2  382.65   34.33
   4   0   2  409.31   38.42
  -4   0   2  382.95   37.60
   4   2   2  366.50   33.76
   4   2   2  380.30   34.66
  -4   2  -2  403.30   37.09
   4  -2  -2  414.21   36.86
   4   2   2  328.66   36.47
  -4   2  -2  389.67   33.92
  -4  -2  -2  421.19   33.64
   4   2  -2  382.07   36.64
  -4  -2  -2  414.38   36.73
  -4  -2  -2  424.64   34.73
  -4   2   2  413.59   36.99
   4   4   2  342.62   33.57
   4   4   2  443.01   38.49
   4   4   2  317.72   36.40
   4  -4  -2  356.04   33.11
   4  -4  -2  430.30   37.04
  -4  -4   2  455.18   42.27
  -4   4  -2  477.89   34.62
   4  -4  -2  412.38   33.02
   4  -4  -2  409.83   34.61
  -4   4  -2  435.68   37.69
   4   4  -2  414.56   37.46
  -4  -4  -2  453.29   35.52
   4  -4   2  355.54   39.58
  -4  -4  -2  425.29   33.09
   4   4  -2  357.86   33.38
   4  -4   2  325.85   34.54
   4   6   2    9.20    2.97
   4  -6  -2   21.70    5.81
  -4   6  -2   14.70    6.67
  -4   6  -2   13.11    8.60
   4   6   2   11.42   14.32
   4  -6  -2    9.09    3.85
  -4   6  -2   13.25    6.16
   4  -6   2    1.24    6.76
   4  -6   2   18.65   10.26
   4   6  -2   13.10    5.69
   4   6  -2   15.44    6.20
   4   8   2   57.43   18.94
  -4   8  -2  108.96   19.03
   4   8  -2   38.27   20.80
   5   1   2 2688.29  221.12
  -5   1  -2 2857.50  225.38
   5  -1  -2 2709.25  224.72
  -5  -1   2 2560.87  225.39
   5   1   2 2552.00  225.07
  -5   1  -2 2745.28  221.13
  -5  -1  -2 2810.13  221.09
  -5  -1  -2 2868.51  225.13
   5   1  -2 2932.69  225.28
  -5   1   2 2666.56  225.15
   5  -1   2 2644.57  225.82
   5  -1   2 3067.21  221.56
   5  -3  -2 2034.41  163.37
   5   3   2 1986.75  163.93
   5  -3  -2 2154.95  167.85
   5   3   2 1800.70  169.44
   5   3   2 2126.04  165.99
  -5   3  -2 2326.08  164.49
  -5   3  -2 2148.43  168.34
  -5  -3   2 2034.54  168.87
   5  -3  -2 1780.00  163.70
  -5  -3  -2 2021.51  166.69
  -5  -3  -2 2088.64  163.60
  -5   3   2 2213.07  169.98
   5   3  -2 2036.26  167.76
   5  -3   2 1832.60  168.93
  -5   5  -2 1204.48  100.87
   5  -5  -2 1248.39   98.05
   5  -5  -2 1050.34   96.61
   5  -5  -2 1280.35   98.99
  -5  -5   2 1279.02  102.09
   5   5   2 1247.19  101.33
  -5   5  -2 1283.52   97.26
   5   5   2 1032.22   96.89
   5  -5  -2 1335.31  101.30
   5   5   2 1332.03   99.39
   5  -5   2 1101.47  103.53
   5   5  -2 1285.40   97.38
   5   5  -2 1182.43  101.14
   5   5  -2 1077.50   96.83
  -5  -5  -2 1290.34   96.38
   5  -5   2 1012.19   97.70
  -5   7  -2  968.30   74.56
   5   7   2  827.17   80.54
   5   7  -2  887.31   74.38
   5   7  -2 1048.92   77.60
   5  -7   2 1026.07   80.84
   5  -7   2  765.88   74.40
   6   0  -2 3828.17  313.15
  -6   0   2 3460.49  313.35
   6   0   2 4261.29  309.35
   6   0   2 3669.17  313.88
  -6   0  -2 4083.51  313.87
   6   2   2 5139.08  445.84
  -6   2  -2 5716.76  446.48
   6  -2  -2 5659.86  445.96
  -6  -2   2 5188.42  446.68
   6  -2   2 5564.97  447.28
  -6   2   2 5467.77  446.06
  -6  -2  -2 5634.70  445.70
   6   2  -2 5953.89  446.38
   6  -4  -2 3098.14  248.62
  -6   4  -2 3043.82  247.11
   6   4   2 3209.74  251.35
  -6  -4   2 3348.56  254.67
   6  -4  -2 3126.48  251.31
   6  -4  -2 3333.94  253.22
   6  -4  -2 2988.34  248.05
   6   4   2 3038.68  248.69
  -6   4  -2 3298.45  253.60
   6  -4   2 2832.55  254.36
  -6  -4  -2 3097.70  248.12
   6   4  -2 2769.58  248.05
   6   4  -2 3191.18  248.76
  -6  -4  -2 3211.28  251.48
  -6   6  -2 1378.18  115.14
   6   6   2 1578.15  117.33
   6  -6  -2 1514.58  119.60
  -6   6  -2 1621.79  115.90
   6  -6  -2 1290.94  114.86
   6  -6  -2 1542.31  114.81
  -6   6  -2 1423.67  119.08
   6   6   2 1343.56  120.08
   6   6  -2 1361.49  115.18
   6  -6   2 1304.13  116.06
   6  -6   2 1445.96  122.99
   6   6  -2 1233.43  118.02
   6   6  -2 1449.77  115.49
   6   6  -2 1524.89  120.21
   7   1   2   37.18    8.46
   7   1   2   34.27   12.52
   7  -1  -2   52.84    9.97
   7  -1  -2   50.62   12.72
  -7  -1   2   46.81   13.42
  -7   1  -2   53.37   10.64
   7   1   2   46.90   11.03
   7   1  -2   34.91    9.90
  -7   1   2   52.27   13.77
  -7  -1  -2   56.40   13.73
   7  -1   2   41.94   10.96
  -7  -1  -2   47.86   10.43
   7  -1   2   42.57   14.15
   7   1  -2   31.73   10.90
   7  -3  -2   48.23   10.68
   7  -3  -2   30.55   10.63
   7   3   2   20.12   10.78
   7   3   2   27.30    9.37
  -7  -3   2   31.00   15.93
   7   3   2   32.61   12.59
   7  -3  -2   20.71    7.07
  -7   3  -2   38.65   10.35
  -7   3  -2   46.89   12.72
   7  -3  -2   30.58    8.04
   7   3  -2   49.27    9.79
   7   3  -2   26.91    9.82
   7  -3   2   24.10    9.78
  -7  -3  -2   37.33   10.72
  -7  -3  -2   32.63    8.52
   7   5   2   -7.98    7.07
  -7   5  -2    0.28    8.52
  -7   5  -2   -6.41    7.90
   7   5   2    1.28   12.71
   7   5   2    5.08    7.72
   7  -5  -2   -3.27    6.20
   7  -5  -2    4.87    6.65
   7  -5  -2    1.87    7.58
   7   5   2    2.83    6.39
   7  -5  -2   -5.32    5.86
   7  -5   2    1.14    8.55
   7  -5   2   -1.72    9.53
   7   5  -2    5.49    7.53
   7   5  -2    5.77    7.72
   7   5  -2   -1.19    5.98
   7   5  -2    6.45    8.06
  -7  -5  -2    1.95    5.93
   7  -7  -2   42.22    8.47
   7  -7  -2   40.71    6.82
  -7   7  -2   30.34    8.93
   7   7   2   13.01   17.38
   7   7   2   35.25    6.61
   7  -7  -2   33.34    9.70
   7   7  -2   47.34    8.18
   7  -7   2   53.35   14.38
   7  -7   2   32.57    9.52
   7   7  -2   58.57   10.81
   7   7  -2   34.09    9.05
  -8   0  -2 4574.73  358.53
   8   0  -2 4439.95  357.72
  -8   0   2 4017.51  358.18
   8   0   2 4314.53  358.85
  -8   0  -2 4656.25  352.60
  -8   2  -2 3339.44  268.98
   8   2   2 2904.65  268.29
   8   2   2 3417.94  263.27
   8  -2  -2 3142.72  262.36
   8  -2  -2 3305.57  268.27
   8   2   2 3387.51  263.76
  -8  -2   2 3018.34  269.08
  -8   2  -2 3541.18  263.47
   8  -2   2 3085.34  269.05
  -8  -2  -2 3319.67  262.79
   8   2  -2 3386.68  268.33
   8  -2   2 3274.41  263.26
  -8  -2  -2 3428.65  268.39
   8   2  -2 3302.24  262.87
   8  -4  -2 2243.30  186.44
  -8   4  -2 2563.88  184.00
   8   4   2 2406.03  186.37
   8  -4  -2 2123.40  182.32
  -8   4  -2 2356.55  189.04
   8  -4  -2 2303.31  182.60
   8  -4  -2 2281.60  188.27
   8  -4   2 2054.20  183.39
   8  -4   2 2120.59  189.25
   8   4  -2 2285.64  188.08
   8   4  -2 2357.45  183.37
  -8  -4  -2 2220.79  182.61
  -8   6  -2  745.08   56.15
   8  -6  -2  706.15   54.88
   8   6   2  650.59   61.21
   8   6   2  605.00   55.39
   8  -6  -2  586.57   54.53
   8  -6  -2  674.96   58.26
   8   6   2  717.22   58.83
   8   6  -2  658.66   55.69
   8   6  -2  600.08   54.62
   8  -6   2  623.70   56.29
   8   6  -2  685.14   59.94
   8  -6   2  662.57   63.38
   9  -1  -2 3185.62  261.00
   9   1   2 2897.94  260.49
   9   1   2 3427.25  262.03
   9  -1  -2 3204.49  267.21
  -9   1  -2 3395.00  261.79
  -9   1  -2 3315.72  268.25
   9   1   2 3060.17  267.98
   9  -1   2 3336.78  261.94
   9   1  -2 3246.82  267.20
   9   1  -2 3314.82  261.38
  -9  -1  -2 3335.74  261.53
  -9  -1  -2 3331.29  267.90
   9  -1   2 3248.86  268.96
  -9   3  -2 1934.53  139.99
   9  -3  -2 1637.03  138.35
   9   3   2 1800.86  141.40
   9  -3  -2 1720.24  144.71
   9   3   2 1465.36  143.85
   9  -3  -2 1519.84  137.85
  -9   3  -2 1785.60  145.82
   9   3  -2 1772.72  139.47
  -9  -3  -2 1709.17  138.72
   9  -3   2 1682.73  145.72
  -9  -3  -2 1789.69  144.33
   9   3  -2 1759.65  144.67
   9  -3   2 1694.26  139.46
   9  -5  -2  944.70   82.57
   9  -5  -2  991.70   85.01
   9  -5  -2  987.17   78.77
   9  -5  -2  930.97   78.06
  -9   5  -2 1123.78   80.51
   9   5   2 1033.69   84.11
   9   5   2  921.08   79.42
  -9   5  -2 1023.74   85.58
   9   5   2  952.05   83.84
   9   5  -2  944.40   84.14
   9   5  -2  785.43   83.18
   9  -5   2  854.22   79.81
   9  -5   2  887.92   96.59
   9   5  -2  972.59   79.64
  -9  -5  -2  975.14   78.53
   9   7   2  391.13   37.37
  -9   7  -2  499.09   38.86
   9   7   2  363.55   45.18
   9   7   2  390.27   45.34
   9  -7  -2  427.36   41.36
   9  -7  -2  386.95   37.11
   9  -7   2  460.28   47.84
   9   7  -2  435.68   38.65
   9   7  -2  489.98   42.52
  10   0  -2   84.46   19.29
  10   0   2   65.43   15.83
  10   0   2   61.45    9.47
  10   0  -2   74.38   13.78
 -10   0  -2   92.32   20.59
  10   0   2   82.68   21.44
  10   0  -2   84.95   19.25
 -10   0  -2   74.18   16.04
  10   2   2   66.84   14.62
 -10   2  -2   91.31   20.80
  10   2   2   68.43   15.33
  10  -2  -2   61.88   13.42
 -10   2  -2   54.36   14.09
  10  -2  -2   57.43   16.43
  10   2   2   51.99   17.60
  10   2  -2   62.55   16.53
  10   2  -2   48.20   16.70
 -10  -2  -2   77.73   13.84
  10  -2   2   76.66   20.41
 -10  -2  -2   72.88   17.73
  10   2  -2   51.87   14.02
  10  -2   2   67.03   15.47
  10  -4  -2   65.34   11.83
  10   4   2   43.10   14.07
  10  -4  -2   44.69    8.48
  10   4   2   42.77   16.99
 -10   4  -2   63.98   14.24
  10  -4  -2   65.08   15.07
  10   4   2   41.34   17.34
  10  -4  -2   62.79   14.73
 -10   4  -2   37.26   15.27
  10   4   2   50.40   12.78
  10  -4   2   27.95   19.43
  10  -4   2   44.80   13.41
  10   4  -2   43.09   13.82
 -10  -4  -2   65.40   11.79
  10   4  -2   55.20   12.95
  10   6   2   41.49   11.83
  10  -6  -2   35.02   12.60
 -10   6  -2   60.34   13.74
  10  -6  -2   32.47   10.32
  10  -6   2   42.96   12.46
  10  -6   2   34.56   14.67
  10   6  -2   33.97    9.36
  10   6  -2   71.74   13.62
  10   6  -2   68.08   14.40
 -11   1  -2 4121.41  331.48
 -11   1  -2 4040.12  323.24
  11  -1  -2 3978.32  329.66
  11  -1  -2 4008.75  322.54
  11   1   2 4248.62  323.78
  11   1   2 3678.21  330.81
  11  -1  -2 3759.30  333.55
  11   1   2 3711.81  321.67
  11  -1   2 4069.44  332.45
  11   1  -2 4036.41  330.01
 -11  -1  -2 4084.68  330.94
  11  -1   2 4465.22  323.99
  11   1  -2 3867.35  329.86
  11   1  -2 4159.76  322.97
  11  -3  -2 1254.15  102.50
 -11   3  -2 1413.00  104.34
  11   3   2 1078.53  109.15
  11  -3  -2 1251.95  109.86
  11   3   2 1345.40  105.76
  11  -3  -2 1299.27  108.61
  11  -3  -2 1064.51  100.91
  11   3   2 1282.55  103.73
 -11   3  -2 1367.69  112.05
  11   3  -2 1141.34  109.10
  11   3  -2 1179.37  108.85
  11  -3   2 1208.49  110.84
 -11  -3  -2 1199.59  102.60
  11   3  -2 1278.09  103.45
  11  -3   2 1321.76  103.87
  11  -5  -2 1051.64   89.16
  11   5   2 1206.78   98.17
  11  -5  -2 1138.53   91.13
  11  -5  -2 1062.14   95.73
  11   5   2 1058.73   91.93
  11   5   2 1041.07   95.83
 -11   5  -2 1176.18   92.60
  11   5  -2 1129.61   92.10
  11   5  -2 1117.75   97.46
  11  -5   2 1053.52   99.26
  11  -5   2 1064.06   92.24
 -11  -5  -2 1141.44   91.14
  12   0  -2   93.97   23.56
  12   0   2  114.50   19.65
  12   0   2  149.06   33.54
  12   0   2   78.35   11.67
  12   0  -2   99.64   23.79
 -12   0  -2  123.77   26.69
 -12   0  -2   82.14   19.50
  12   0  -2  101.44   17.32
  12  -2  -2 1037.70   95.50
  12  -2  -2  996.12   88.81
  12   2   2  939.15   96.68
 -12   2  -2 1182.27   90.71
 -12   2  -2 1173.47   99.40
  12  -2  -2 1092.64   97.22
  12   2   2 1092.58   90.48
  12   2   2 1142.38   90.80
  12   2  -2  955.35   95.92
  12  -2   2 1035.85   98.64
 -12  -2  -2 1003.91   89.29
  12   2  -2 1034.11   96.06
  12   2  -2 1065.09   89.65
  12  -2   2 1081.93   90.46
  12  -4  -2  829.87   78.24
  12  -4  -2  794.57   68.10
  12  -4  -2  816.60   78.91
  12  -4  -2  816.65   70.75
 -12   4  -2  943.49   73.12
  12   4   2  880.40   76.20
  12   4   2  956.09   79.83
  12   4   2  838.60   71.95
  12  -4   2  770.73   71.99
  12   4  -2  879.00   72.40
  12   4  -2  690.37   76.92
  12   4  -2  891.18   77.90
 -12  -4  -2  847.02   70.98
  12  -4   2  780.09   78.61
  12  -6  -2  196.36   22.43
  12   6   2  211.42   24.85
  12   6   2  208.91   28.32
  12   6   2  190.84   32.50
  12  -6  -2  206.32   37.28
 -12   6  -2  204.03   24.89
  12   6  -2  149.52   21.50
  12  -6   2  216.58   24.98
  12   6  -2  178.47   25.15
 -13   1  -2  186.14   34.17
 -13   1  -2  166.89   25.90
  13   1   2  153.78   31.41
  13  -1  -2  194.32   32.17
  13   1   2  148.28   22.25
  13   1   2  172.94   25.32
  13  -1  -2  212.34   33.83
  13  -1  -2  177.73   24.19
  13  -1   2  197.19   26.69
 -13  -1  -2  143.83   24.84
  13   1  -2  187.81   32.76
  13   1  -2  178.77   24.29
  13   1  -2  170.91   30.96
  13  -1   2  176.71   34.59
  13  -3  -2  443.11   45.43
  13   3   2  455.31   39.40
  13   3   2  377.00   42.42
  13  -3  -2  324.97   32.89
  13  -3  -2  410.07   37.04
  13   3   2  289.65   43.09
  13   3   2  393.24   45.09
 -13  -3  -2  375.84   37.16
  13  -3   2  311.27   44.64
  13   3  -2  379.94   38.53
  13  -3   2  389.74   38.89
  13   3  -2  395.26   43.10
  13   3  -2  320.94   43.01
  13  -5  -2   82.72   15.84
  13  -5  -2   85.82   21.13
  13   5   2  108.87   18.27
 -13   5  -2  129.32   20.51
  13   5   2   82.57   24.25
  13   5   2   89.52   21.49
  13  -5   2   73.91   24.53
  13  -5   2   99.37   18.07
  13   5  -2  103.73   18.71
  13   5  -2   92.10   18.91
  14   0  -2 1978.01  172.40
  14   0   2 1887.00  174.95
  14   0   2 2055.22  164.95
  14   0  -2 1844.64  162.86
 -14   0  -2 2148.96  163.95
  14   0  -2 1940.26  172.17
  14  -2  -2 1418.67  116.36
  14  -2  -2 1318.37  123.66
  14  -2  -2 1435.69  126.44
  14   2   2 1437.55  117.38
  14   2   2 1535.74  129.72
  14   2   2 1301.90  126.92
 -14   2  -2 1513.84  118.01
  14   2   2 1475.54  118.32
  14  -2   2 1430.40  117.89
 -14  -2  -2 1311.38  116.56
  14  -2   2 1357.55  127.66
  14   2  -2 1336.79  124.68
  14   2  -2 1232.93  124.72
  14   2  -2 1366.44  117.06
  14  -4  -2 1011.88   95.81
  14   4   2 1134.01   94.81
 -14   4  -2 1175.78   91.65
  14   4   2  981.86   90.02
  14   4   2 1124.74   99.00
  14  -4  -2 1002.91   90.24
 -14  -4  -2  991.34   89.12
  14   4  -2 1064.53   90.33
  14  -4   2 1072.20   99.77
  14   4  -2 1036.89   96.67
  14  -4   2 1043.25   90.28
  15   1   2  712.63   66.83
  15   1   2  720.28   76.73
  15  -1  -2  676.63   76.62
  15   1   2  628.19   75.35
  15  -1  -2  642.20   72.25
 -15   1  -2  679.91   65.20
  15  -1  -2  635.95   63.92
 -15  -1  -2  715.03   64.68
  15   1  -2  740.10   73.90
  15  -1   2  790.62   67.50
  15  -1   2  809.97   81.00
  15   1  -2  694.30   73.14
  15  -1   2  691.92   77.31
  15   1  -2  679.09   64.57
  15  -3  -2  178.45   24.41
  15  -3  -2  141.72   17.60
 -15   3  -2  202.75   28.41
  15   3   2  186.21   27.39
  15  -3  -2  243.05   35.03
  15   3   2  205.88   29.24
  15  -3   2  186.08   26.46
 -15  -3  -2  181.86   24.95
  15   3  -2  178.54   26.31
  15  -3   2  105.79   31.32
  15   3  -2  152.25   30.01
  16   0   2  343.07   36.07
  16   0  -2  392.88   54.06
  16   0   2  547.01   62.63
  16   0   2  551.33   55.34
  16   0  -2  515.53   55.37
 -16   2  -2  298.40   43.32
  16   2   2  319.03   41.03
  16   2   2  306.77   42.87
  16  -2  -2  323.07   49.26
  16  -2  -2  354.33   40.29
  16   2   2  422.42   54.39
  16   2  -2  394.23   42.17
  16  -2   2  459.99   44.96
  16  -2   2  494.66   60.17
  16   2  -2  411.24   48.02
 -16  -2  -2  367.37   42.01
  16  -2   2  499.54   79.98
   0   0   3   -9.47    3.64
   0   0  -3   -1.11    4.21
   0   0   3   -0.22    4.70
   0   0  -3   -1.33    4.29
   0  -2  -3  255.02   23.02
   0   2   3  236.07   25.90
   0  -2  -3  322.67   27.82
   0   2  -3  291.30   27.13
   0  -2  -3  305.35   24.44
   0   2  -3  254.85   22.92
   0   2   3  199.73   22.30
   0   4   3   94.09   16.23
   0   4  -3   86.60   11.54
   0  -4   3   64.87   11.83
   0  -4  -3  107.35   14.04
   0   4   3  100.49   13.44
   0  -4   3   90.50   17.64
   0   4  -3  118.61   15.48
   0  -4  -3  114.26   14.37
   0  -4  -3   88.35   11.42
   0   6  -3   13.29    7.60
   0  -6   3   -4.01    8.40
   0   6  -3   15.24    7.03
   0   6   3   12.85   14.22
   0   8  -3   -0.82   14.31
   0   8   3   31.56   18.97
  -1   1  -3   16.87    6.87
   1   1   3    0.17    4.91
   1  -1  -3   11.73    6.23
  -1   1  -3   -0.55    4.93
  -1  -1   3    2.74    5.35
   1   1   3   -1.81    4.75
  -1  -1   3    4.49    5.91
   1  -1  -3   12.57    4.54
   1   1  -3   14.01    6.05
  -1  -1  -3   10.14    6.01
   1   1  -3   11.98    6.65
  -1   1   3   10.56    6.19
  -1  -1  -3    5.11    5.58
  -1  -1  -3   10.43    5.37
   1  -1   3    0.62    5.50
   1  -1   3    1.34    5.78
  -1   1   3   11.20    4.34
  -1   3  -3   43.98    9.83
   1   3   3   17.94    5.39
   1   3   3   21.51    9.29
   1  -3  -3   28.17    6.60
  -1  -3   3   27.68    9.94
  -1  -3   3   18.89    6.85
  -1   3  -3   21.53    6.25
   1  -3  -3   37.61    9.30
   1  -3  -3   20.31    7.76
   1   3   3   17.70    6.85
  -1  -3  -3   29.33    8.41
  -1  -3  -3   41.45    8.69
   1  -3   3   12.85    9.73
   1   3  -3   28.63    6.39
   1  -3   3   12.28    7.25
   1   3  -3   24.04    8.10
  -1  -3  -3   20.30    6.50
  -1   3   3   30.92    8.51
   1  -5  -3   19.10    9.91
   1   5   3    4.28   12.55
  -1   5  -3   22.71    7.57
  -1  -5   3   19.84   10.95
   1  -5  -3    3.84    4.76
  -1   5  -3    9.38    7.15
   1  -5  -3   14.30    6.42
   1   5   3   10.25    5.25
   1   5  -3   11.15    6.27
   1  -5   3    3.15    8.90
  -1  -5  -3   10.71    4.03
   1  -5   3   -2.60    7.24
  -1   5   3    8.28    4.90
  -1   5   3    2.46   11.68
  -1  -5  -3    4.47   10.05
   1   5  -3   -3.87    5.88
  -1  -5  -3    8.47    4.91
  -1  -7   3    3.08    7.28
   1   7   3   -2.93   15.24
  -1   7  -3   -2.11    5.40
  -1   7  -3    5.92    6.44
   1   7  -3    8.54    6.37
  -1   7   3   18.87   15.03
   1   7  -3   10.90    6.25
   1  -7   3    5.20    8.50
   2   0  -3    2.57    5.08
  -2   0  -3   -0.38    4.49
   2   0   3    4.05    6.89
  -2   0  -3   -6.21    4.39
   2   0   3  -12.35    5.61
  -2   0  -3   -6.21    4.88
  -2   0   3    3.53    4.78
  -2   0   3   -0.80    5.36
   2   0  -3    4.36    4.59
   2  -2  -3    2.37    5.49
   2  -2  -3   -4.50    4.31
  -2  -2   3   -0.78    5.64
   2   2   3   -3.60    5.85
   2   2   3    1.09    5.53
  -2   2  -3   -2.42    5.14
   2  -2  -3    0.21    4.59
  -2   2  -3   10.12    6.42
  -2  -2   3    7.48    7.11
   2   2   3   -6.09    4.88
   2   2  -3    4.91    6.08
   2  -2   3   -1.09    6.90
  -2  -2  -3   -8.11    5.18
   2   2  -3   -0.13    4.41
  -2   2   3    3.93    5.81
  -2  -2  -3   -1.99    6.27
   2  -2   3   -9.39    6.01
  -2  -2  -3    0.50    5.58
   2  -4  -3   91.61   13.01
   2  -4  -3  110.31   15.07
  -2  -4   3  113.62   19.84
  -2   4  -3   96.57   12.38
   2   4   3  108.79   15.59
   2   4   3   81.85   13.19
   2   4   3   76.32   10.25
   2  -4  -3   78.14   11.35
  -2   4   3   80.46   12.35
  -2  -4  -3   90.60   11.17
   2  -4   3   70.99   12.52
   2  -4   3   86.13   17.97
  -2  -4  -3  102.76   13.33
   2   4  -3  125.92   18.14
  -2  -4  -3   91.68   13.90
   2   4  -3   91.58   11.53
  -2   6  -3   19.49    8.58
   2  -6  -3   28.00   11.40
  -2  -6   3   13.25   10.34
   2   6   3   21.32   15.98
  -2   6  -3   34.32    8.28
   2  -6  -3   21.01    3.72
   2  -6  -3   20.09    4.18
  -2   6   3    7.34   13.04
   2   6  -3   30.73    9.88
   2   6  -3   20.71    7.39
   2  -6   3   12.00   12.72
  -2   8  -3   -8.19   12.84
  -2   8  -3   -0.74    3.99
   2   8   3   29.16   16.84
   2   8  -3  -18.58   14.25
  -2   8   3   36.77   14.86
   3   1   3  133.52   19.98
   3  -1  -3  200.73   20.31
   3  -1  -3  165.66   15.28
  -3  -1   3  142.70   20.12
  -3   1  -3  151.86   15.62
   3   1   3  121.53   16.30
  -3   1  -3  170.04   19.15
  -3  -1  -3  169.79   16.34
  -3   1   3  173.61   20.40
  -3  -1  -3  158.90   16.21
   3  -1   3  133.18   21.11
  -3  -1  -3  154.11   18.88
   3  -1   3  118.89   16.96
   3   1  -3  161.01   15.54
   3   1  -3  193.37   20.13
  -3   3  -3    5.54    6.50
   3  -3  -3   17.44    5.77
   3  -3  -3   10.10    6.96
   3   3   3    2.33    6.07
   3   3   3    9.13    8.42
   3  -3  -3   20.30    8.40
  -3   3  -3   11.50    7.62
  -3  -3   3   24.23   10.04
   3   3  -3   19.56    8.22
  -3  -3  -3    9.57    6.59
   3  -3   3   12.37   10.16
  -3  -3  -3    5.19    7.98
   3   3  -3   15.84    5.94
   3  -3   3    0.87    8.28
  -3  -3  -3   13.73    7.55
  -3   5  -3    1.61    8.22
   3   5   3    7.52    6.45
  -3  -5   3   19.08   10.75
   3  -5  -3   21.56    9.54
   3  -5  -3    5.88    5.97
  -3   5  -3   18.09    7.89
   3   5   3   10.01   13.65
   3  -5  -3   18.56    7.95
   3   5   3    1.10    5.38
   3  -5  -3    9.70    4.27
  -3  -5  -3   14.48    5.67
  -3  -5  -3    9.83    4.62
   3  -5   3   -3.80    8.01
   3   5  -3    6.71    7.69
   3   5  -3   16.45    6.91
  -3   5   3   10.78    5.95
   3  -5   3    9.55   12.05
  -3  -7   3    0.63    8.25
  -3   7  -3   -8.22    5.95
  -3   7  -3   -2.48    6.67
  -3   7  -3   -7.68   10.14
   3   7   3   -9.62   13.99
   3   7  -3    0.75    6.74
   3   7  -3   14.81    6.81
   3  -7   3   -2.67   10.62
   3   7  -3   -7.44    6.31
  -4   0  -3    3.17    6.60
  -4   0  -3   -3.43    6.37
   4   0   3    0.81    8.10
  -4   0  -3   -3.73    4.83
   4   0  -3    5.77    5.37
   4   0  -3    4.19    6.61
   4   0   3  -11.59    6.62
  -4   0   3   10.71    8.08
  -4  -2   3   51.56   13.81
   4   2   3   30.41    9.03
   4   2   3   37.84    9.13
   4  -2  -3   48.63   11.42
   4   2   3   48.11   13.32
  -4   2  -3   27.20    8.31
   4  -2  -3   38.59    8.23
   4  -2  -3   40.36    7.23
  -4   2  -3   32.29    9.99
  -4  -2  -3   57.24   12.59
  -4  -2  -3   44.63    9.24
  -4  -2  -3   50.82    8.87
   4  -2   3   30.95   10.33
   4   2  -3   53.80   11.72
   4  -2   3   35.98   13.60
  -4   2   3   46.04   11.29
   4   2  -3   37.42    7.48
   4   4   3  -12.20    6.05
  -4   4  -3   -1.71    7.50
   4   4   3    0.54   11.61
   4  -4  -3    1.91    6.69
   4  -4  -3    3.99    4.83
  -4   4  -3    1.26    7.60
  -4  -4   3   10.27    9.28
   4  -4  -3    5.88    7.71
   4   4   3   -6.24    5.49
   4  -4  -3    6.06    5.62
   4   4  -3   -0.03    5.89
  -4  -4  -3    5.50    9.75
   4  -4   3   11.74   10.72
  -4   4   3   12.37    6.59
   4   4  -3    7.29    7.39
  -4  -4  -3   -1.94    5.91
  -4  -4  -3    0.41    5.52
   4   6   3    8.95    5.23
   4  -6  -3    1.24    4.05
  -4   6  -3    8.27    8.17
   4  -6  -3    3.96    4.67
  -4   6  -3    0.29    8.51
   4   6   3    4.48    5.06
   4   6   3   11.25    6.08
  -4   6  -3    0.28    7.67
  -4  -6   3   12.69    9.80
   4  -6  -3   18.97    8.47
   4   6   3  -10.36   14.94
   4  -6  -3    2.40    5.42
   4  -6   3   20.89   12.35
   4   6  -3    9.05    6.81
   4  -6   3    5.73    9.01
   4   6  -3   18.04    8.84
  -4   8  -3   -4.82    5.99
   4   8   3  -10.32   16.17
   4   8  -3  -22.17   15.19
   4   8  -3   12.01    5.67
   4   8  -3   -0.74    4.69
  -5   1  -3  101.74   13.43
  -5  -1   3   99.88   19.09
   5   1   3   84.33   11.80
  -5   1  -3   93.51   11.14
   5   1   3  104.38   14.51
   5  -1  -3   91.95   11.31
   5  -1  -3  115.41   18.14
  -5   1  -3  118.19   18.48
   5   1   3  107.05   20.29
   5   1  -3  108.80   16.25
  -5   1   3   80.07   17.19
  -5  -1  -3  124.06   18.70
   5   1  -3  100.42   12.03
   5  -1   3   81.43   18.73
  -5  -1  -3  103.89   13.14
  -5  -1  -3  104.68   13.45
   5  -1   3   86.09   14.71
   5  -3  -3    3.36    5.43
   5  -3  -3    2.40    6.87
   5  -3  -3   -1.99    6.91
  -5   3  -3    3.38    7.54
  -5   3  -3   -0.37    8.01
   5   3   3    0.07    7.68
   5   3   3   -6.96    7.35
   5   3   3    3.45   10.61
   5  -3   3  -12.41    8.68
  -5  -3  -3    5.83    9.60
   5   3  -3   -2.26    5.75
  -5  -3  -3    9.63    8.34
  -5  -3  -3    2.35    7.14
   5   3  -3    5.59    6.73
  -5   3   3    4.46    7.33
  -5  -5   3  425.98   42.64
  -5   5  -3  461.24   40.88
   5   5   3  317.38   39.05
   5  -5  -3  425.13   34.45
   5  -5  -3  368.59   35.04
   5   5   3  400.20   42.23
   5  -5  -3  436.64   37.55
   5  -5  -3  436.99   40.17
  -5  -5  -3  436.41   37.37
   5  -5   3  343.11   37.18
   5   5  -3  389.05   35.31
  -5  -5  -3  413.76   34.57
   5   5  -3  490.36   41.59
   5  -5   3  397.99   44.49
  -5   7  -3   -7.57    9.01
  -5   7  -3    0.44    7.48
   5   7   3   -3.31   16.72
  -5   7  -3   -2.99    7.39
   5   7  -3   20.65    7.03
   5  -7   3   -2.53    8.27
   5   7  -3    2.04    7.92
   5  -7   3   11.59   12.66
   5   7  -3   12.48    8.76
  -6   0  -3    0.59    8.21
  -6   0  -3    4.16    5.74
   6   0   3   -9.04    8.74
  -6   0  -3   -2.47    7.52
   6   0  -3   -7.35    6.10
  -6   0   3   -4.90    7.57
   6   0   3  -10.98    9.53
   6  -2  -3  511.81   42.51
  -6   2  -3  474.57   40.93
   6  -2  -3  542.47   48.12
   6   2   3  433.14   48.10
  -6  -2   3  495.66   49.68
  -6   2  -3  509.97   43.56
   6   2   3  451.58   43.52
  -6   2  -3  557.23   48.50
   6   2   3  438.24   43.57
   6   2  -3  465.21   42.02
  -6  -2  -3  558.48   48.47
  -6   2   3  527.12   48.79
  -6  -2  -3  541.94   44.19
   6  -2   3  476.81   50.39
   6   2  -3  506.99   47.73
  -6  -2  -3  547.72   43.57
   6  -2   3  465.81   44.21
   6   4   3   80.43   17.83
  -6  -4   3   93.87   19.51
  -6   4  -3  126.76   19.72
   6  -4  -3  103.26   12.49
   6  -4  -3   97.33   12.53
  -6   4  -3  133.56   16.47
   6  -4  -3  105.48   17.36
   6   4   3   78.37   13.45
   6  -4  -3  106.23   15.34
   6   4   3  126.26   21.00
   6   4  -3  105.99   17.82
   6   4  -3   88.21   12.16
   6  -4   3   69.84   14.59
  -6  -4  -3  100.14   15.31
  -6  -4  -3   99.46   12.65
   6  -4   3  107.91   22.15
  -6   4   3  112.34   16.53
  -6   6  -3   78.73   12.71
   6  -6  -3   73.72   13.46
   6   6   3   65.01   10.96
  -6  -6   3   82.11   18.09
   6  -6  -3   68.87   10.42
  -6   6  -3   68.29    9.85
   6   6   3   76.16   12.64
   6   6   3   47.50   12.58
  -6   6  -3   64.03   14.85
   6  -6  -3   95.14   15.45
   6   6   3   53.92   19.53
   6  -6  -3   70.79    9.76
   6   6  -3   70.76   11.92
   6  -6   3   76.91   20.42
   6   6  -3   66.11   14.46
   6  -6   3   58.76   13.02
   6   6  -3   69.34   10.85
  -6  -6  -3   77.59    9.84
   7   1   3   25.26   11.67
  -7   1  -3   47.65    7.03
   7   1   3   37.98   14.26
  -7   1  -3   58.92   15.07
  -7   1  -3   53.54   12.05
  -7  -1   3   26.14   13.17
   7   1   3   28.12    8.13
   7  -1  -3   41.18   13.00
   7  -1  -3   47.74   10.16
  -7   1   3   39.87   14.50
  -7  -1  -3   48.39   10.75
  -7  -1  -3   42.46    9.73
   7  -1   3   20.80   12.18
  -7  -1  -3   36.14   12.66
   7  -1   3   52.64   16.10
   7   1  -3   26.85   11.65
   7  -3  -3   -7.23    7.57
   7  -3  -3    1.54    7.49
  -7  -3   3    0.97   10.15
  -7   3  -3   -6.95    8.92
  -7   3  -3    2.20    9.61
   7   3   3   -7.12    9.10
   7   3   3    2.12    9.55
   7   3   3    4.12    9.20
  -7   3  -3    0.41    1.88
   7  -3  -3   -0.17    8.10
  -7  -3  -3    4.53    9.17
   7  -3   3   -7.28   10.07
   7  -3   3   -2.51   10.15
   7   3  -3    3.49    9.07
  -7   3   3    2.79    8.29
   7   3  -3   -2.49    7.67
  -7  -3  -3    5.69    8.75
   7   3  -3   -0.45    6.44
   7  -5  -3  224.85   22.16
  -7   5  -3  250.47   28.69
  -7   5  -3  216.88   18.91
   7   5   3  224.62   28.15
   7   5   3  199.25   23.49
  -7  -5   3  198.41   29.96
   7  -5  -3  253.82   25.10
   7   5   3  241.53   31.68
   7  -5  -3  252.24   24.49
  -7   5  -3  303.09   25.79
   7  -5  -3  260.00   21.97
   7   5  -3  211.29   22.06
  -7  -5  -3  228.41   23.24
   7  -5   3  177.28   24.40
   7   5  -3  249.32   24.09
   7   5  -3  219.23   26.54
   7   7   3    9.04    6.64
   7   7   3    1.82   17.74
  -7   7  -3   -0.68   10.35
   7  -7  -3   21.28   10.38
   7   7   3   13.83    6.77
   7  -7  -3   -8.47   10.65
  -7   7  -3   -5.99    8.75
   7  -7  -3    8.00    7.18
   7  -7   3    8.83   10.03
   7  -7   3   32.31   16.10
   7   7  -3   20.34    7.74
   7   7  -3   -8.90    8.93
   7   7  -3   19.31    9.91
  -8   0   3   -3.00   10.44
   8   0   3  -11.20    4.77
   8   0   3   -3.93   11.28
   8   0  -3    1.60    9.27
  -8   0  -3   -3.11    9.21
   8   0  -3  -12.42    7.76
   8   0   3    2.63   11.88
  -8   0  -3    0.52   10.82
   8  -2  -3   10.98    9.30
   8  -2  -3    4.95    8.22
   8   2   3    5.99    9.47
   8   2   3   -2.03    9.71
  -8   2  -3    3.01   10.69
   8   2   3    9.31   10.90
  -8   2  -3    4.75   10.85
  -8  -2  -3    0.59   10.37
   8  -2   3   -5.11   11.48
  -8   2   3   10.65   11.02
   8   2  -3   -8.25    8.97
   8   2  -3   -4.21    8.33
  -8  -2  -3    3.32    9.54
   8  -2   3    0.09   11.57
  -8   4  -3  -11.30    9.69
   8  -4  -3    3.30    7.66
   8   4   3   14.22   10.18
   8   4   3   15.27   12.04
  -8  -4   3  -12.27   10.71
   8   4   3   -8.07    8.76
  -8   4  -3  -13.12   10.46
   8  -4  -3    1.84    8.68
   8  -4  -3   -1.61    6.97
   8  -4  -3   11.37    9.13
   8  -4   3   -3.48   10.76
   8   4  -3    5.21    7.06
  -8  -4  -3    5.49    8.57
   8   4  -3   14.35    9.28
  -8  -4  -3   -7.27    8.40
   8   4  -3    5.73   10.12
   8  -4   3  -13.63   10.17
   8   6   3    8.13   17.79
   8  -6  -3   -4.05    7.98
   8   6   3   12.64    9.41
   8  -6  -3    2.72    7.54
   8  -6  -3   -8.70    9.08
  -8   6  -3    2.84   10.60
   8  -6  -3    7.29    7.72
   8   6   3   -2.58    8.08
  -8   6  -3   -3.78   10.77
  -8  -6  -3   11.08    7.34
   8   6  -3    2.77    9.95
   8   6  -3   19.89    9.53
   8  -6   3   16.17   11.49
   8  -6   3   11.59   13.30
  -9   1  -3  121.51   17.82
  -9  -1   3  134.65   25.77
   9  -1  -3  126.37   22.65
   9   1   3  116.93   18.97
   9   1   3   77.19   13.73
   9  -1  -3  117.91   16.59
  -9   1  -3  132.50   23.90
  -9   1   3  139.86   25.67
   9  -1   3  101.20   19.30
   9  -1   3   86.95   22.89
  -9  -1  -3  151.21   25.24
  -9  -1  -3  121.83   18.28
   9   1  -3  127.48   16.82
   9   1  -3  149.30   24.40
   9  -3  -3   -3.88    7.89
  -9   3  -3   -1.92   11.77
   9   3   3    5.63   11.00
   9  -3  -3   -0.33    8.64
  -9   3  -3   -2.15   10.98
   9  -3  -3    0.91    8.62
   9   3   3  -11.74   12.64
  -9  -3   3    3.74   13.04
   9   3   3   19.13   11.99
  -9  -3  -3   -2.52   10.01
   9  -3   3   -3.89   12.07
  -9  -3  -3   -3.85    9.29
   9   3  -3   10.32   10.43
   9  -3   3  -13.44   11.19
   9   3  -3    8.76    9.64
  -9   5  -3   -1.86   11.51
  -9   5  -3   23.89   13.10
   9  -5  -3   -5.16    8.07
   9  -5  -3    2.77    8.39
   9   5   3   10.87   10.67
   9   5   3   -2.07   15.84
   9  -5  -3   11.09   10.41
   9  -5  -3    5.35    8.39
   9  -5  -3   14.71    7.84
   9   5  -3   -5.96   10.46
   9  -5   3   -9.13   11.37
   9   5  -3   20.35    9.76
   9   5  -3   10.64    7.82
  -9  -5  -3    3.78    8.52
   9  -5   3   -8.63   10.94
  10   0  -3  -18.55    9.33
  10   0   3   -9.74    5.29
 -10   0  -3   -7.64   13.01
 -10   0   3   18.39   14.70
  10   0   3   11.33   14.44
  10   0   3   -4.80   12.65
 -10   0  -3  -12.04   11.47
  10   0  -3   21.08   11.84
  10   2   3  -10.02   12.58
 -10   2  -3    4.70   12.66
  10  -2  -3    9.54   10.90
  10  -2  -3  -13.33    9.08
 -10  -2   3   -6.18   12.80
  10   2   3    6.81   11.14
 -10   2  -3   -5.81   12.98
  10   2   3   -3.11   11.54
 -10  -2  -3  -12.24   10.68
 -10  -2  -3    0.78   12.22
  10   2  -3    3.29   10.33
  10  -2   3    4.22   12.53
  10  -2   3    0.72   14.03
  10   2  -3    5.93   10.60
  10   4   3   78.29   15.27
 -10   4  -3   67.69   18.87
  10  -4  -3   95.21   19.95
 -10   4  -3   82.46   16.92
  10  -4  -3   76.51   12.99
  10  -4  -3   59.82   15.36
  10   4   3   33.40   14.50
  10  -4  -3   80.52   13.14
  10   4   3   82.98   20.71
  10  -4   3   76.08   16.20
  10  -4   3   93.01   22.83
 -10  -4  -3   87.09   14.08
  10   4  -3   65.42   16.63
  10   4  -3   90.19   15.51
 -10  -4  -3   72.54   17.21
  10  -6  -3    7.49   10.79
  10  -6  -3   19.84    9.20
  10   6   3   22.24   19.55
  10   6   3   29.90   18.22
  10  -6  -3   19.51    9.70
 -10   6  -3   23.63   14.10
  10   6   3   39.03   11.73
 -10   6  -3    9.03   13.35
 -10  -6  -3   21.58    9.83
  10  -6   3   19.23   19.16
  10  -6   3   28.99   12.99
  10   6  -3   22.14    9.25
  10   6  -3   38.07   11.51
  11   1   3    0.95   15.41
  11  -1  -3   -3.33   12.20
 -11   1  -3   -1.51   11.12
  11   1   3    3.86   15.85
  11   1   3   -2.17    8.92
  11  -1  -3    3.79   10.66
 -11   1  -3    2.22   12.23
 -11  -1  -3  -12.56   13.55
  11  -1   3  -11.30   13.71
 -11  -1  -3    0.90   13.09
  11   1  -3   -7.00   12.96
  11  -1   3    6.15   18.53
  11   1  -3   -2.22   11.38
  11  -3  -3   33.51   13.78
 -11   3  -3   51.80   18.87
  11   3   3   37.31   16.20
  11  -3  -3   13.33    9.57
  11   3   3   29.33   13.64
  11   3   3   34.46   25.27
  11  -3  -3   32.57   12.14
 -11   3  -3   21.41   14.05
  11  -3  -3   31.61   13.65
  11  -3   3   23.69   14.48
  11   3  -3    4.58   12.39
 -11  -3  -3   16.83   12.77
 -11  -3  -3   34.35   15.44
  11   3  -3   15.29   13.63
  11  -3   3   55.60   20.33
  11   5   3    6.87   12.05
 -11   5  -3   -2.05   13.27
  11   5   3    6.19   12.22
  11  -5  -3    7.41   10.80
  11  -5  -3  -12.99    7.97
  11   5   3   17.23   19.77
 -11   5  -3   -0.92   13.87
  11  -5  -3    4.77   10.11
  11   5  -3    0.33   12.56
  11  -5   3  -11.93   14.06
 -11  -5  -3    5.30   10.75
  11   5  -3    2.58    9.05
  11  -5   3   16.75   12.49
  11   5  -3   -3.91   10.53
  12   0  -3   20.87   15.79
  12   0   3    1.42    6.49
  12   0  -3    3.83   12.95
  12   0  -3    8.52   14.08
  12   0   3   -8.67   16.04
  12   0   3    5.17   17.70
 -12   0  -3    5.95   13.15
 -12   0  -3   11.55   19.80
  12   2   3   62.89   18.75
 -12   2  -3   58.49   21.81
 -12   2  -3   58.50   17.31
  12   2   3   63.66   15.75
  12   2   3   82.67   22.43
  12  -2  -3   79.16   19.97
  12  -2  -3  103.42   22.34
  12  -2  -3   78.83   20.07
  12   2  -3   60.70   17.33
 -12  -2  -3   62.07   19.89
  12   2  -3   77.72   20.16
  12   2  -3   60.28   20.16
 -12  -2  -3   85.83   17.75
  12  -2   3   62.11   18.17
  12  -2   3   80.17   22.90
  12  -4  -3   20.15   11.81
  12  -4  -3    6.79    9.29
 -12   4  -3   31.33   16.03
  12   4   3   26.57   13.90
 -12   4  -3    6.56   16.07
  12   4   3   26.75   19.01
  12   4  -3   23.73   13.53
  12  -4   3   37.32   15.50
  12  -4   3   31.08   17.56
  12   4  -3   13.97   14.51
 -12  -4  -3   19.80   12.49
  13   1   3    7.95    9.56
  13  -1  -3    5.31   16.13
  13  -1  -3   -4.08   13.78
 -13   1  -3   13.03   19.66
  13   1   3    1.85   17.62
  13   1   3  -16.92   16.94
  13  -1  -3    8.67   13.52
 -13   1  -3    4.81   17.31
 -13  -1  -3    1.72   17.49
  13   1  -3   -4.62   15.07
 -13  -1  -3   -5.81   16.59
  13  -1   3  -18.72   16.18
  13   1  -3  -15.21   12.02
  13  -1   3   12.56   16.76
  13   1  -3  -12.63   12.34
  13  -3  -3   12.70   14.57
  13  -3  -3    9.04   15.03
  13   3   3   17.49   17.27
  13  -3  -3   14.91    9.12
  13   3   3    6.33   22.57
  13   3   3   24.57   16.22
 -13   3  -3   14.50   16.13
 -13   3  -3   -1.19   15.79
  13  -3  -3    7.97   12.78
  13  -3   3  -11.71   16.16
 -13  -3  -3    6.45   14.65
  13   3  -3   15.27   13.97
  13   3  -3   27.91   17.65
  13  -3   3    9.02   14.95
  13   3  -3  -20.86   13.38
  13   5   3   45.39   15.19
  13  -5  -3   -0.12    7.34
  13  -5  -3   10.99   12.15
  13   5   3  -19.52   19.31
 -13  -5  -3    7.77   12.58
  13  -5   3   40.81   27.76
  13   5  -3    6.69   10.93
  14   0   3    2.86   20.66
  14   0   3    5.22    6.87
  14   0  -3   17.73   16.20
  14   0  -3   15.33   19.54
  14   0   3    2.33   20.39
 -14   0  -3    2.93   16.90
  14   0  -3  -10.35   15.75
 -14   0  -3  -11.64   17.37
 -14   2  -3  -33.63   16.73
  14   2   3   28.14   20.58
  14  -2  -3  -32.80   14.65
 -14   2  -3   12.01   16.37
  14   2   3   18.17   19.23
  14  -2  -3    1.91   15.80
  14  -2  -3    4.66   15.62
  14   2   3    7.23   13.99
  14   2  -3   -8.38   16.38
 -14  -2  -3    1.06   15.84
  14  -2   3   22.93   18.01
  14   2  -3  -14.26   16.26
  14   2  -3   12.35   14.25
  14  -2   3   29.22   22.28
  14  -4  -3   -2.59    8.13
  14   4   3   11.73   20.90
  14   4   3   18.83   16.25
  14  -4  -3   -7.76   13.14
 -14   4  -3   -5.05   17.37
  14   4  -3    0.62   23.33
 -14  -4  -3   -7.23   13.44
  14  -4   3   21.17   20.77
  14  -4   3   22.45   16.22
  14   4  -3   39.63   26.79
  15   1   3   14.70   10.57
  15  -1  -3  -33.12   15.21
  15   1   3   20.77   24.46
 -15   1  -3    8.96   19.80
  15   1   3   30.06   22.55
  15  -1  -3    7.55   15.90
 -15   1  -3   23.01   20.95
  15  -1  -3   26.89   19.94
  15   1  -3  -14.65   16.64
  15  -1   3   13.30   19.10
  15  -1   3   35.78   24.63
  15   1  -3    4.60   19.68
  15  -3  -3   20.80    9.23
  15   3   3  -16.66   17.61
  15  -3  -3   -9.81   15.07
  15  -3  -3   21.57   18.87
 -15   3  -3    4.47   17.38
  15  -3   3   22.62   18.80
  15  -3   3   30.25   24.37
 -15  -3  -3  -33.26   14.67
  15   3  -3   30.63   17.75
  16   0  -3   -1.51   21.19
 -16   0  -3    0.22   18.66
  16   0  -3   -9.77   17.53
  16   0   3   56.95   28.83
  16   0   3   77.33   26.24
  16   0  -3  -28.19   18.19
  16  -2  -3   23.08   18.28
  16  -2  -3    1.77   23.64
  16   2   3    9.38   14.48
 -16   2  -3   -9.57   22.42
  16   2  -3   18.30   18.14
  16  -2   3   13.29   27.85
   0   0   4 5532.08  447.61
   0  -2   4 2165.66  195.38
   0   2   4 2834.59  202.02
   0   2   4 2546.73  195.03
   0  -2   4 2194.06  202.19
   0  -4  -4 1998.84  163.73
   0   4   4 1712.91  163.10
   0   4  -4 2118.33  164.14
   0   4   4 1818.51  168.06
   0   4  -4 2272.52  170.23
   0  -4  -4 2271.65  169.92
   0  -4  -4 2121.68  165.45
   0  -6  -4 1727.10  150.84
   0   6   4 1935.16  153.75
   0  -6  -4 1868.92  153.57
   0  -6  -4 1886.15  155.41
   0   6  -4 2184.14  158.79
   0  -6   4 1787.20  162.03
  -1  -1   4  217.27   27.30
  -1   1  -4  306.54   38.44
   1   1   4  208.95   26.48
   1   1   4  239.01   21.97
  -1  -1   4  217.77   22.21
   1  -1   4  201.19   22.32
  -1   1   4  248.02   21.55
   1  -1   4  207.15   27.87
  -1   1   4  257.20   27.34
   1  -3  -4 1337.43  108.93
   1  -3  -4 1400.72  110.29
   1   3   4 1090.88  113.09
  -1   3  -4 1548.74  115.18
  -1   3  -4 1339.50  108.90
   1   3  -4 1465.51  115.29
   1   3  -4 1354.57  108.93
  -1  -3  -4 1406.99  110.28
  -1   3   4 1254.69  113.93
  -1   3   4 1087.24  108.28
  -1  -3  -4 1331.17  109.12
  -1  -3  -4 1574.39  115.64
   1  -5  -4  401.02   36.18
   1  -5  -4  310.25   30.80
  -1   5  -4  388.16   32.13
  -1  -5   4  326.65   40.61
   1   5   4  291.12   30.14
   1  -5  -4  380.17   34.56
   1   5   4  267.12   36.20
  -1   5  -4  426.72   37.28
   1   5   4  334.89   34.77
  -1  -5  -4  359.50   33.50
  -1   5   4  360.75   34.43
   1   5  -4  426.33   37.74
   1  -5   4  282.15   39.78
  -1  -5  -4  356.05   33.91
  -1  -5  -4  325.58   30.41
   1   5  -4  366.73   31.74
  -1   7  -4   74.17   14.44
   1   7   4   57.19   19.80
  -1   7  -4   58.75   11.61
  -1  -7   4   54.66   17.67
   1  -7   4   80.15   20.65
   1   7  -4   64.33   11.74
   1   7  -4   77.38   14.15
  -2   0  -4  753.42   62.11
  -2   0  -4  733.01   62.46
   2   0  -4  798.33   62.19
   2   0  -4  836.13   68.51
  -2   0   4  579.06   66.77
  -2   0  -4  789.06   67.30
   2  -2  -4 1495.16  121.22
   2  -2  -4 1445.36  120.27
  -2   2  -4 1424.71  120.29
  -2   2  -4 1594.20  125.86
   2   2  -4 1617.61  126.90
  -2  -2  -4 1608.09  121.54
   2   2  -4 1424.32  120.26
  -2  -2  -4 1484.28  120.62
  -2   2   4 1310.78  125.49
  -2   4  -4  965.49   70.62
   2   4   4  678.29   73.97
  -2   4  -4  981.22   76.15
  -2  -4   4  786.43   79.03
   2   4   4  696.09   72.96
   2  -4  -4  799.93   69.99
   2  -4  -4  870.17   71.66
  -2  -4  -4  899.03   72.29
  -2   4   4  884.71   75.15
   2  -4   4  701.79   78.67
   2   4  -4  822.75   69.97
  -2  -4  -4  938.18   75.08
   2   4  -4  907.42   76.34
  -2  -4  -4  894.53   70.19
   2  -6  -4  608.49   56.29
  -2  -6   4  652.21   66.90
   2  -6  -4  690.53   55.85
  -2   6  -4  763.87   63.62
   2  -6  -4  701.11   60.11
   2   6   4  578.22   64.07
   2   6   4  699.83   59.63
   2  -6  -4  713.06   61.50
  -2  -6  -4  645.16   55.87
  -2  -6  -4  668.41   58.12
   2   6  -4  826.61   64.90
   2   6  -4  786.11   58.45
  -2   6   4  692.33   59.09
   2  -6   4  686.20   68.47
  -3   1  -4 3194.38  236.89
   3  -1  -4 2919.82  231.02
  -3   1  -4 2940.27  231.18
   3  -1   4 2401.69  231.70
  -3  -1  -4 3263.41  232.08
   3   1  -4 3016.31  231.17
  -3   1   4 2547.77  236.89
   3  -1   4 2469.34  239.12
  -3  -1  -4 3161.98  237.15
   3  -3  -4 3418.14  289.70
   3  -3  -4 3685.60  295.93
   3  -3  -4 3569.49  291.01
  -3   3  -4 3559.35  289.97
  -3   3  -4 3837.55  295.48
   3   3  -4 3510.72  289.83
  -3  -3  -4 3871.62  290.34
   3   3  -4 3893.50  296.65
   3  -3   4 3041.66  298.70
  -3  -3  -4 3589.77  291.17
  -3  -3  -4 3974.26  296.01
  -3   3   4 3561.13  295.93
   3  -5  -4 2048.68  151.80
   3  -5  -4 1689.32  147.40
  -3  -5   4 1979.80  158.57
   3   5   4 1803.70  152.38
   3  -5  -4 2039.00  154.45
   3   5   4 1571.09  147.19
  -3  -5  -4 1803.16  146.92
   3  -5   4 1582.72  148.83
   3  -5   4 1726.36  158.20
   3   5  -4 1809.94  147.88
  -3  -5  -4 1965.99  150.65
  -3   5   4 1931.15  151.74
   3   5  -4 1987.45  154.67
  -3  -5  -4 1800.71  150.41
  -3  -7   4 1052.36   94.04
  -3   7  -4  993.43   89.88
   3   7  -4 1045.92   90.91
   3   7  -4 1046.95   86.25
   3  -7   4 1126.72   97.58
  -4   0   4  342.86   37.86
  -4   0  -4  359.99   31.71
  -4   0  -4  379.50   36.48
   4   0   4  309.80   39.00
   4   0   4  335.74   32.75
   4   0  -4  336.15   30.93
  -4   0  -4  336.32   31.42
   4   0  -4  392.73   37.42
   4  -2  -4  295.61   31.08
  -4  -2   4  213.18   31.62
  -4   2  -4  296.37   30.09
  -4   2  -4  276.13   26.00
   4  -2  -4  265.57   25.06
   4   2   4  213.59   25.98
  -4  -2  -4  307.27   31.25
   4  -2   4  300.84   36.34
  -4  -2  -4  304.48   27.24
   4   2  -4  306.68   31.56
  -4  -2  -4  289.31   26.64
   4   2  -4  293.39   25.49
   4  -2   4  198.04   27.62
  -4   2   4  284.58   41.27
   4  -4  -4   82.91   16.45
   4   4   4   50.64   11.75
  -4   4  -4   82.61   13.00
   4   4   4   41.64   14.40
   4   4   4   52.32   15.67
   4  -4  -4   84.95   11.36
   4  -4  -4   77.20   13.83
  -4   4  -4   93.05   16.96
  -4  -4   4   65.42   19.00
   4  -4   4   51.45   14.16
  -4   4   4   81.30   16.23
   4   4  -4   76.80   11.47
   4   4  -4   99.16   18.07
  -4  -4  -4   74.62   14.84
   4  -4   4   72.86   20.62
  -4  -4  -4   79.70   12.10
  -4  -4  -4   95.54   15.69
  -4  -6   4  238.38   32.35
  -4   6  -4  235.42   27.84
   4  -6  -4  229.76   27.37
  -4   6  -4  269.18   24.93
   4  -6  -4  269.96   27.83
   4   6   4  195.16   22.06
   4  -6  -4  231.73   20.54
   4   6   4  238.14   26.01
   4   6   4  218.15   31.58
   4  -6  -4  217.16   22.00
   4   6  -4  273.56   29.31
   4   6  -4  210.62   22.96
  -4  -6  -4  223.22   22.88
  -4  -6  -4  217.28   20.59
   4  -6   4  189.15   26.02
   4  -6   4  248.90   34.57
  -5  -1   4 2856.06  266.73
  -5   1  -4 3263.19  264.70
   5  -1  -4 3114.68  258.75
   5  -1  -4 3647.93  266.38
  -5   1  -4 3275.34  258.90
  -5   1  -4 3235.44  259.29
   5   1   4 2869.50  259.80
   5   1   4 2824.07  267.45
   5   1  -4 3223.59  258.93
  -5  -1  -4 3366.19  259.69
   5   1  -4 3612.14  266.49
  -5  -1  -4 3651.55  266.16
   5  -1   4 3131.18  269.78
  -5  -1  -4 3544.81  259.72
  -5   1   4 3028.50  266.41
   5  -1   4 3089.27  260.42
   5  -3  -4 2182.34  180.96
  -5   3  -4 2229.79  175.43
   5   3   4 1789.58  175.24
   5  -3  -4 2121.73  176.14
  -5  -3   4 2133.47  184.74
   5   3   4 1943.46  176.77
  -5   3  -4 2306.13  181.21
   5  -3  -4 1963.03  174.49
   5  -3   4 2020.07  185.58
  -5  -3  -4 2319.39  176.89
   5   3  -4 2062.66  174.75
  -5   3   4 2345.50  182.46
  -5  -3  -4 2456.85  175.73
   5   3  -4 2368.40  182.02
   5  -3   4 2085.47  176.54
  -5  -3  -4 2532.48  182.08
  -5   5  -4 1374.60  102.05
  -5  -5   4 1247.70  109.23
   5  -5  -4 1125.29   93.50
   5   5   4 1093.28   99.72
   5  -5  -4  985.81   97.89
   5  -5   4 1061.17   96.32
  -5   5   4 1260.81   99.75
   5  -5   4 1138.66  106.70
   5   5  -4 1214.39  101.27
   5   5  -4 1124.93   94.51
  -5  -5  -4 1143.08   93.91
   5   7   4  317.14   41.12
  -5   7  -4  375.17   37.88
   5   7   4  359.69   31.50
   5  -7  -4  327.51   31.16
  -5   7  -4  394.62   34.17
   5  -7  -4  348.95   29.82
   5  -7  -4  335.05   37.17
  -5  -7   4  364.71   42.45
   5   7  -4  428.50   39.51
   5  -7   4  402.20   45.88
   5   7  -4  394.60   33.13
   5   7  -4  332.54   33.62
   5  -7   4  337.26   35.21
  -6   0  -4 4012.56  317.29
   6   0  -4 3615.57  310.39
   6   0   4 3740.63  321.13
   6   0   4 3755.86  312.09
  -6   0   4 3472.60  318.63
   6   0  -4 4241.15  318.33
  -6   0  -4 4050.11  311.30
  -6   0  -4 4164.58  310.94
  -6   2  -4 2326.62  177.79
  -6   2  -4 2107.14  176.31
  -6  -2   4 2067.11  187.20
  -6   2  -4 2202.86  183.16
   6   2   4 1919.58  177.86
   6  -2  -4 2372.25  184.30
   6   2   4 1882.43  185.23
   6  -2  -4 1988.55  176.63
   6  -2   4 1938.69  178.48
   6   2  -4 2439.15  184.74
  -6  -2  -4 2458.29  178.18
  -6   2   4 2271.58  185.56
   6   2  -4 2089.15  176.88
  -6  -2  -4 2496.09  184.89
  -6  -2  -4 2404.20  178.67
   6  -2   4 2293.38  189.46
  -6   4  -4 1601.57  130.67
   6  -4  -4 1560.50  123.39
   6  -4  -4 1567.53  130.24
   6   4   4 1434.54  127.68
   6  -4  -4 1580.71  125.61
  -6   4  -4 1730.54  125.19
  -6  -4   4 1510.33  134.56
  -6  -4  -4 1593.96  126.44
   6   4  -4 1431.40  123.62
  -6  -4  -4 1527.62  124.52
  -6   4   4 1499.50  130.09
   6  -4   4 1393.95  134.84
   6   4  -4 1480.45  129.98
  -6  -4  -4 1624.00  129.45
   6  -4   4 1318.50  125.38
   6   6   4  661.75   65.60
  -6   6  -4  843.86   65.02
  -6   6  -4  857.95   72.53
   6   6   4  742.22   71.23
   6  -6  -4  872.50   68.87
   6  -6  -4  799.20   73.64
   6  -6  -4  690.90   65.22
  -6  -6   4  845.68   76.50
   6   6  -4  774.10   66.82
   6   6  -4  735.07   66.43
   6   6  -4  853.95   72.56
   6  -6   4  767.39   68.02
  -6  -6  -4  820.54   64.60
   6  -6   4  773.14   77.49
   7   1   4   60.69   14.39
  -7   1  -4   85.57   11.03
   7  -1  -4   68.89   11.24
  -7   1  -4   82.05   18.17
   7   1   4   54.03   19.54
  -7   1  -4   61.21   13.96
   7  -1  -4   64.50   16.46
  -7  -1   4   71.73   20.37
  -7  -1  -4   70.32   14.29
  -7  -1  -4   64.82   17.41
  -7   1   4   85.16   19.98
   7  -1   4   50.58   15.87
  -7  -1  -4   74.14   12.95
   7   1  -4   86.64   18.60
   7  -1   4   57.11   20.37
   7   1  -4   68.05   11.75
   7   3   4   58.63   13.45
   7   3   4   46.16   14.87
  -7   3  -4   55.95    7.71
  -7   3  -4   77.20   17.62
   7   3   4   50.33   14.79
   7  -3  -4   48.50   10.93
  -7  -3   4   68.41   20.92
   7  -3  -4   52.56   14.86
  -7   3  -4   72.02   13.79
   7  -3  -4   44.16   12.20
   7   3  -4   42.54   14.53
   7  -3   4   71.31   20.94
  -7  -3  -4   64.44   15.54
  -7   3   4   48.41   16.28
   7   3  -4   57.80   10.86
  -7  -3  -4   59.15   15.91
   7  -3   4   37.32   14.94
  -7  -3  -4   58.77   13.25
   7   5   4   24.76   13.70
  -7   5  -4    3.32   11.75
   7  -5  -4    6.40    8.40
   7  -5  -4   20.46    9.97
   7   5   4   10.75   10.41
   7   5   4   31.63   18.69
  -7   5  -4    8.56   10.85
  -7  -5   4   26.60   17.02
   7  -5   4    1.52   12.53
   7   5  -4   10.13   11.69
  -7  -5  -4    4.18    8.38
   7   5  -4    7.68    8.40
   7  -5   4   47.90   18.09
   7   5  -4    8.49    9.80
  -7  -5  -4    8.60    8.58
  -7   7  -4   16.81   12.41
  -7   7  -4    4.35    5.50
  -7   7  -4    8.09   21.29
   7   7   4   31.08    8.69
   7  -7  -4   13.13    9.30
   7   7   4   12.32    7.98
   7  -7  -4  -12.99   13.12
   7   7  -4   21.82    8.83
   7  -7   4   34.61   32.18
   8   0   4 2120.02  176.91
  -8   0  -4 2287.79  183.06
  -8   0  -4 2364.44  176.31
  -8   0  -4 2286.60  174.92
   8   0  -4 1962.73  174.51
   8   0   4 1957.94  185.48
  -8   0   4 2072.56  184.92
   8   0  -4 2249.63  183.14
  -8   2  -4 2338.80  173.97
   8  -2  -4 2278.13  180.72
   8  -2  -4 2109.14  172.73
   8   2   4 1973.09  173.94
  -8   2  -4 2075.41  179.72
   8   2   4 1796.12  181.23
  -8  -2   4 2011.21  183.25
  -8   2   4 2195.44  182.61
   8   2  -4 2317.08  180.97
  -8  -2  -4 2371.16  174.62
   8  -2   4 2041.48  184.40
   8  -2   4 2066.10  174.58
  -8  -2  -4 2360.08  181.52
   8   2  -4 1989.24  172.37
   8   4   4 1016.93   92.12
  -8   4  -4 1218.29   99.52
   8  -4  -4  939.19   90.46
   8  -4  -4 1199.22   93.05
   8  -4  -4 1174.14  109.04
   8  -4  -4 1188.86   90.96
   8   4   4 1246.22   96.77
  -8  -4  -4 1111.71   91.61
   8   4  -4 1089.33   97.70
  -8   4   4 1108.86   98.87
   8  -4   4 1138.43   93.42
   8   4  -4  985.85   90.60
   8   4  -4 1087.50   92.23
   8  -4   4 1066.53  117.64
   8  -6  -4  946.81   79.27
   8   6   4  867.71   83.33
   8  -6  -4  972.56   75.06
  -8   6  -4  959.48   83.85
  -8  -6   4  964.67   88.29
  -8   6  -4 1088.04   78.04
   8   6   4  760.72   76.04
   8  -6  -4  787.41   75.22
   8  -6  -4  984.43   78.02
   8  -6   4  999.94   89.72
   8   6  -4  857.91   76.70
   8   6  -4  832.87   75.34
  -8  -6  -4  900.30   75.03
   8   6  -4  918.74   82.33
   8  -6   4  897.07   78.23
  -9   1  -4 1632.91  129.68
   9   1   4 1503.80  130.30
  -9  -1   4 1460.37  139.09
   9  -1  -4 1629.27  136.72
   9   1   4 1394.16  138.75
  -9   1  -4 1570.54  136.39
   9  -1  -4 1636.11  128.81
  -9   1  -4 1601.41  127.03
   9   1  -4 1463.06  127.87
   9  -1   4 1432.20  139.75
  -9  -1  -4 1688.35  137.63
  -9  -1  -4 1781.45  132.79
   9   1  -4 1682.82  137.15
   9  -1   4 1578.42  130.58
  -9   1   4 1510.54  138.58
   9   1  -4 1555.91  128.84
  -9  -3   4 1350.96  123.22
   9   3   4 1267.92  112.12
   9  -3  -4 1236.15  111.51
  -9   3  -4 1477.33  119.74
  -9   3  -4 1542.15  112.69
   9  -3  -4 1398.28  118.57
   9   3   4 1304.68  113.39
   9  -3  -4 1160.82  109.90
   9  -3  -4 1430.68  110.92
   9   3  -4 1339.80  111.68
   9  -3   4 1265.05  127.73
  -9  -3  -4 1457.47  119.18
   9  -3   4 1320.58  112.85
   9   3  -4 1430.99  118.78
  -9   3   4 1311.01  119.96
  -9  -3  -4 1475.18  112.11
   9   3  -4 1270.18  110.32
  -9   5  -4  880.51   72.70
   9  -5  -4  781.61   67.21
   9  -5  -4  777.34   62.29
  -9  -5   4  844.08   77.32
   9   5   4  649.84   63.52
   9   5   4  796.04   70.73
   9  -5  -4  651.32   62.03
   9  -5   4  722.53   65.19
   9   5  -4  711.37   68.83
   9  -5   4  756.09   76.05
  -9  -5  -4  749.97   62.76
   9   5  -4  678.07   62.18
   9   5  -4  751.20   64.48
 -10   0   4  445.62   54.92
  10   0   4  475.58   48.56
 -10   0  -4  516.21   47.11
 -10   0  -4  534.66   54.08
  10   0  -4  458.36   45.47
  10   0  -4  552.71   53.49
 -10   2  -4  116.77   19.58
  10   2   4  125.89   19.59
  10  -2  -4   92.84   16.69
  10   2   4   85.29   24.65
 -10   2  -4  122.33   24.71
  10   2   4   77.47   16.10
  10  -2  -4  130.66   24.69
 -10  -2   4  106.38   27.36
  10   2  -4   91.80   17.33
 -10  -2  -4  120.10   23.85
 -10  -2  -4  111.97   18.54
  10  -2   4   90.83   20.77
 -10   2   4  113.59   25.24
  10   2  -4   76.13   14.52
  10  -2   4   88.37   25.10
  10   2  -4  129.17   23.91
  10  -4  -4   48.50   14.80
 -10   4  -4   49.45   17.39
  10   4   4   64.14   19.77
  10  -4  -4   64.70   12.47
  10  -4  -4   51.00   16.47
 -10  -4   4   12.43   19.27
  10   4   4   57.17   15.09
  10  -4  -4   56.31   14.18
 -10   4  -4   66.47   17.21
  10  -4  -4   45.74   11.05
  10   4  -4   41.38   14.77
 -10  -4  -4   44.84   13.99
  10  -4   4   57.94   20.56
  10   4  -4   68.33   15.65
  10  -4   4   63.18   16.41
 -10  -4  -4   57.29   16.73
  10   4  -4   53.71   11.59
 -10   6  -4   13.81   14.33
  10   6   4   44.59   12.67
  10  -6  -4    8.32    7.26
  10   6   4   17.79   21.10
  10  -6  -4   11.69   11.67
  10   6   4   26.81   14.35
  10  -6  -4   15.37   12.23
  10  -6  -4    3.13   12.72
  10  -6   4   64.26   15.36
  10   6  -4   25.61    9.94
  10   6  -4    7.73   13.29
 -10  -6  -4   31.13   11.21
  11   1   4 1184.84   99.13
 -11  -1   4  960.24  107.12
 -11   1  -4 1281.86   98.45
  11   1   4  998.31  107.43
  11  -1  -4 1123.69   96.56
  11  -1  -4 1269.03  106.31
 -11   1  -4 1227.76  106.64
  11  -1   4 1165.54   99.56
  11  -1   4 1165.18  110.12
 -11   1   4 1084.50  107.81
 -11  -1  -4 1262.03  107.21
  11   1  -4 1067.66   96.66
  11   1  -4 1149.72  105.21
 -11  -1  -4 1211.94   98.26
 -11  -3   4 1760.55  158.76
  11   3   4 1691.81  146.17
  11   3   4 1752.66  147.45
  11  -3  -4 1718.28  144.61
 -11   3  -4 1940.31  155.37
  11  -3  -4 1555.04  144.63
  11  -3  -4 1856.92  153.69
  11   3  -4 1729.66  144.24
  11   3  -4 1769.19  145.78
  11  -3   4 1750.82  146.94
 -11  -3  -4 1908.58  146.08
 -11  -3  -4 1937.00  154.79
  11  -3   4 1789.65  158.57
  11  -5  -4  688.95   58.22
  11   5   4  607.84   59.56
  11  -5  -4  662.99   63.68
 -11   5  -4  782.29   61.98
 -11   5  -4  779.50   69.33
  11   5   4  640.52   67.01
  11  -5   4  703.67   72.07
 -11  -5  -4  695.44   58.83
  11   5  -4  660.50   60.04
  11   5  -4  573.27   57.28
  11   5  -4  676.47   64.83
  11  -5   4  684.37   60.78
  12   0   4 2316.95  185.91
  12   0  -4 2253.48  192.92
 -12   0   4 2062.53  195.87
 -12   0  -4 2412.42  184.80
 -12   0  -4 2251.18  193.70
  12   0   4 2120.33  197.02
  12   0  -4 2252.67  183.35
 -12  -2   4  497.23   67.58
  12  -2  -4  662.21   64.13
 -12   2  -4  716.82   58.39
  12   2   4  600.32   58.38
  12   2   4  551.49   55.43
  12  -2  -4  577.50   55.41
 -12   2  -4  578.70   64.54
  12   2  -4  654.45   64.25
  12   2  -4  611.46   56.46
 -12  -2  -4  718.48   58.23
  12  -2   4  674.57   71.01
  12  -2   4  606.04   58.64
 -12  -2  -4  683.74   66.60
 -12   4  -4  363.36   42.36
  12   4   4  370.67   41.30
  12   4   4  252.37   31.87
  12  -4  -4  317.46   30.78
 -12   4  -4  307.60   34.40
  12  -4  -4  276.58   30.05
  12   4  -4  229.89   28.38
  12  -4   4  281.19   33.28
  12  -4   4  296.12   42.72
  12   4  -4  281.00   35.80
  12   4  -4  253.67   32.43
  13  -1  -4  301.97   39.77
  13   1   4  228.32   29.15
  13  -1  -4  301.92   34.17
  13   1   4  361.69   39.12
 -13   1  -4  372.06   45.65
 -13   1  -4  326.27   36.37
  13   1   4  300.34   46.00
  13  -1  -4  297.03   40.20
  13  -1   4  349.02   50.75
  13   1  -4  321.32   35.22
  13  -1   4  302.61   39.09
 -13  -1  -4  292.02   43.40
  13   1  -4  303.24   40.11
 -13  -1  -4  284.95   35.92
  13  -3  -4   39.14   19.82
  13   3   4   89.03   20.45
 -13   3  -4   78.19   25.71
  13   3   4   88.58   20.40
  13  -3  -4   60.19   16.39
 -13   3  -4   70.53   20.23
  13  -3  -4   69.23   16.80
  13   3  -4   45.94   17.97
  13  -3   4   77.19   19.78
  13  -3   4   65.85   28.49
  13   3  -4   59.61   14.25
  13   3  -4   49.63   19.09
  14   0   4 1072.49  108.27
  14   0  -4 1013.05  100.23
 -14   0  -4 1066.98  103.17
  14   0   4 1227.07   95.21
  14   0  -4  945.78   99.21
 -14   0  -4 1068.95   92.66
  14   0  -4 1009.06   91.04
 -14   2  -4 1051.96   89.26
  14  -2  -4 1054.08   96.99
 -14   2  -4 1113.24  100.55
  14  -2  -4 1033.15   97.18
  14   2   4  869.07   86.26
  14   2   4 1075.62   90.38
  14  -2  -4 1011.86   87.05
 -14  -2  -4 1072.89  104.10
  14   2  -4 1060.84   97.05
  14   2  -4  840.93   95.47
  14  -2   4 1053.86   90.77
 -14  -2  -4 1090.54   89.35
  14  -2   4 1027.09  113.23
  14   2  -4  940.83   87.86
 -15   1  -4   87.54   28.84
  15   1   4   82.48   14.86
  15   1   4   62.86   28.86
  15   1   4  119.00   25.37
  15  -1  -4   63.63   26.23
  15  -1  -4  159.77   30.45
  15  -1  -4   42.92   20.35
  15   1  -4  103.21   31.59
  15  -1   4   36.86   30.40
 -15  -1  -4   79.47   30.74
  15  -1   4   89.45   32.19
 -15  -1  -4   96.20   21.98
  15   1  -4   89.96   22.33
  15   1  -4   47.74   22.28
   0   0   5   -7.34    8.78
   0   0   5   -1.70    7.03
   0   0  -5    4.41    8.93
   0   0  -5    2.93    7.71
   0   2  -5  114.39   20.57
   0   2   5   59.41   16.89
   0  -2  -5  113.13   14.29
   0  -2  -5  138.56   25.23
   0   2  -5   94.56   13.61
   0  -2  -5  103.39   15.10
   0  -4   5   22.13   13.16
   0   4  -5   39.42   10.62
   0  -4  -5   24.49   10.54
   0   4   5   37.03    9.62
   0  -4  -5   49.20   11.48
   0  -4   5    8.95   15.32
   0   4  -5   66.05   15.81
   0  -4  -5   55.42   14.99
   0   4   5   52.57   15.11
   0   6  -5   20.62   10.60
   0   6  -5   14.01   10.26
   0  -6  -5   -8.20   14.19
   0  -6  -5   -5.28    7.69
   0  -6   5   13.77   20.28
  -1   1  -5    8.23    9.88
  -1   1  -5    1.84    8.34
  -1  -1   5   -3.50    8.76
   1   1   5   14.96   10.71
   1  -1  -5    1.15    9.07
   1   1   5   -7.44    8.21
  -1  -1   5   -7.12    9.02
   1  -1  -5   -1.69    7.70
  -1   1   5   -3.72    7.47
  -1  -1  -5   -6.64    7.97
   1   1  -5    2.51    8.28
  -1  -1  -5   15.87   10.82
   1  -1   5   -9.02    9.14
   1   1  -5    2.63    9.23
   1  -1   5  -10.44    8.75
  -1  -1  -5    3.07    7.25
  -1   1   5    2.83    9.73
   1   3   5   17.53   10.84
  -1  -3   5    6.25   11.28
  -1  -3   5   37.92   16.78
   1  -3  -5   38.35   14.23
   1   3   5   15.98    8.80
   1  -3  -5   23.48    9.63
  -1   3  -5   24.84    9.52
   1  -3  -5    9.23   10.64
  -1   3  -5   30.80   12.53
  -1  -3  -5   13.63    9.68
  -1   3   5    7.41    8.03
  -1  -3  -5   32.93   13.17
   1   3  -5   21.39    9.28
   1  -3   5    5.01   13.86
  -1  -3  -5   21.76   10.93
   1   3  -5   26.66   12.11
   1  -3   5  -10.84   11.16
  -1   3   5   17.07   11.63
   1  -5  -5   -5.14    9.02
   1   5   5   -3.75    9.14
   1  -5  -5    4.39    8.98
  -1  -5   5  -27.97   13.29
  -1   5  -5    9.25    9.61
   1   5   5    1.65    8.12
   1  -5  -5   -7.44   10.95
  -1   5  -5   21.41   14.69
  -1  -5  -5  -13.03   10.55
  -1   5   5   10.20    9.45
   1  -5   5  -11.20   12.68
  -1  -5  -5    2.95    8.74
   1   5  -5   10.12    9.25
  -1  -5  -5   -7.15   10.93
   1  -5   5   -6.70   15.38
   1   5  -5    7.12   10.43
   1  -7  -5  -27.63   16.19
  -1   7  -5   19.21   12.35
   1  -7  -5    3.52    2.90
  -1  -7   5  -21.24   22.09
   1  -7  -5    3.21    1.78
  -1   7  -5   15.23   10.72
   1   7  -5   25.69   10.61
   1  -7   5   12.34   29.73
   1   7  -5    4.82   11.01
  -2   0  -5   -3.93    7.69
   2   0  -5    3.05    9.09
   2   0   5   -2.18    7.58
  -2   0   5   -3.12    9.31
  -2   0   5    0.24    8.04
  -2   0  -5   -3.83    7.26
   2   0  -5    1.09    7.73
   2   0   5   -0.91   10.50
  -2   0  -5   -6.73    8.06
   2  -2  -5    0.95    7.41
  -2   2  -5   -0.86    8.16
  -2  -2   5   -6.71    8.34
   2  -2  -5   -4.47    6.86
  -2  -2   5  -16.07   10.16
   2   2   5  -12.78    8.16
  -2   2  -5   -8.55    7.62
   2  -2  -5    4.76    9.43
   2   2   5  -20.52    7.87
  -2   2   5   -2.82    6.97
   2   2  -5   -9.78    7.70
  -2  -2  -5    3.94    9.46
   2  -2   5    2.02   12.37
  -2   2   5    2.12    9.68
  -2  -2  -5  -10.72    8.76
   2   2  -5    5.85    8.55
  -2  -2  -5   -0.31    8.81
   2  -2   5  -27.71   10.20
  -2  -4   5   52.92   19.25
   2  -4  -5   44.31   11.20
   2  -4  -5   66.29   16.73
  -2   4  -5   55.43   11.77
  -2   4  -5   68.71   15.51
   2   4   5   41.04   15.29
   2  -4  -5   50.50   13.84
   2   4   5   33.77   10.80
   2  -4   5   27.79   18.34
   2   4  -5   46.35   14.91
  -2   4   5   26.66   13.55
   2  -4   5   20.74   13.81
   2   4  -5   55.87   10.93
  -2  -4  -5   41.91   12.09
  -2  -4  -5   76.66   16.67
  -2  -4  -5   64.90   14.52
   2  -6  -5   15.05    8.99
   2   6   5   17.32   16.86
   2  -6  -5   10.03   13.89
  -2   6  -5   29.33   12.83
  -2   6  -5   33.14   11.87
  -2  -6   5   37.25   20.69
   2   6  -5   25.59   12.76
  -2  -6  -5    7.24    7.55
  -2  -6  -5   -1.30   15.87
   2  -6   5   32.21   19.92
   2   6  -5   21.07    9.91
   2  -6   5   -0.39   12.73
   3   1   5   59.05   18.71
  -3   1  -5   64.96   12.12
   3   1   5   27.95   12.34
   3  -1  -5   62.28   10.80
  -3   1  -5   76.20   16.82
   3  -1  -5   79.09   17.42
  -3  -1   5   56.53   17.55
  -3  -1  -5   79.75   17.45
  -3   1   5   92.53   20.35
  -3  -1  -5   74.25   13.19
  -3  -1  -5   55.86   12.12
   3  -1   5   58.74   14.78
   3  -1   5   62.52   19.86
   3   1  -5   74.61   11.53
   3   1  -5   72.65   17.37
   3   3   5   -0.19   10.32
   3  -3  -5   14.78    8.80
   3  -3  -5    1.88   10.47
  -3   3  -5    3.43    9.07
  -3   3  -5    3.64    8.29
   3  -3  -5   13.45   10.76
  -3  -3   5    0.01   11.97
  -3  -3  -5   11.42   10.40
  -3  -3  -5    7.41    9.91
  -3   3   5   11.19   10.38
   3  -3   5   -2.28   12.39
   3   3  -5   11.70   10.56
   3   3  -5    0.59    8.12
   3  -3   5    9.43   13.49
  -3   5  -5   14.19   13.20
   3   5   5   11.65   11.12
  -3   5  -5    9.04   10.73
   3   5   5   25.45    9.80
   3  -5  -5   25.80   11.88
   3   5   5    4.43   14.46
  -3  -5   5   -4.03   15.85
   3  -5  -5   17.38   12.12
   3  -5  -5   11.06    9.44
  -3  -5  -5    5.73   13.91
  -3  -5  -5   10.03    9.24
   3   5  -5   12.04    9.42
   3  -5   5    2.80   15.35
  -3  -5  -5    3.64    9.25
   3  -5   5    9.25   13.33
  -3   5   5   -3.54    9.01
  -3   7  -5    5.77   11.29
  -3  -7   5  -15.36   22.03
   3   7   5   68.25   19.87
  -3   7  -5    7.79   11.43
   3   7  -5   27.62   10.17
   3   7  -5   23.99   12.09
   4   0  -5   -2.94    9.04
   4   0   5    0.12   10.58
  -4   0  -5   -4.12    8.19
  -4   0   5   -7.78    9.90
  -4   0  -5   -4.03    9.01
  -4   0  -5   -0.43    8.36
   4   0  -5    1.73    7.43
   4   0   5   15.38   13.32
   4  -2  -5   -3.07    9.67
  -4  -2   5   17.93   14.42
   4  -2  -5   22.73   11.74
   4   2   5   16.72   13.80
  -4   2  -5   11.24    8.30
   4  -2  -5   11.38    8.52
  -4   2  -5   18.89   11.17
   4   2   5    0.46    9.83
   4  -2   5    3.02   15.22
  -4  -2  -5    6.78    9.22
   4  -2   5   -1.63   12.77
  -4   2   5   -2.68   11.17
   4   2  -5   23.80    9.45
  -4  -2  -5    6.09    9.83
  -4  -2  -5   20.20   11.98
   4   2  -5   22.68   14.55
   4  -4  -5    8.86   12.02
   4  -4  -5   10.52    8.79
   4   4   5  -16.47   12.21
  -4   4  -5   13.24   10.95
   4  -4  -5   -0.58   10.28
  -4   4  -5   -2.22    9.88
   4   4   5    0.04    9.72
   4   4   5    5.26    9.39
  -4  -4  -5    5.21    9.79
  -4  -4  -5   12.12   12.67
   4   4  -5    6.00   10.82
  -4  -4  -5   -4.39   10.26
   4  -4   5   -4.51   12.67
  -4   4   5   19.20   12.59
   4   4  -5    4.96    8.79
   4  -6  -5   11.86    9.04
   4  -6  -5  -10.79   14.05
  -4   6  -5   -5.88   11.45
   4  -6  -5    6.60    7.74
  -4   6  -5   21.59   13.26
  -4  -6   5    1.25   17.92
   4   6   5   15.08   15.95
   4   6   5    9.72    9.39
   4  -6   5   -1.31   13.34
   4  -6   5   31.38   21.28
  -4  -6  -5    0.00    7.75
   4   6  -5   15.96    9.45
   4   6  -5   28.83   12.68
  -5   1  -5   24.63   10.96
   5   1   5   20.92   12.38
   5   1   5   20.81   16.41
   5  -1  -5   37.09   13.76
  -5   1  -5   47.39   14.36
  -5   1  -5   21.31    9.56
   5  -1  -5   29.52    9.16
  -5  -1   5   38.33   17.32
   5  -1   5   26.91   18.35
   5   1  -5   20.94    9.73
  -5  -1  -5   18.76   11.97
   5   1  -5   61.17   16.19
   5  -1   5   17.04   13.45
  -5  -1  -5   41.94   11.51
  -5  -1  -5   37.18   11.86
   5   3   5  -11.29   11.18
  -5  -3   5   -5.95   12.44
   5  -3  -5   -1.09    8.45
  -5   3  -5   -3.09    9.48
  -5   3  -5   -0.93    9.34
   5   3   5   -6.46    9.97
   5   3   5   -6.86   10.38
   5  -3  -5    4.84    8.25
   5  -3  -5    3.17   11.15
  -5   3   5   -6.29   11.00
   5  -3   5    3.56   14.38
   5   3  -5    5.11    8.54
  -5  -3  -5    0.27   11.86
   5  -3   5   -6.03   13.13
  -5  -3  -5   -0.23    8.77
  -5  -3  -5   -8.11   10.63
   5   3  -5   -0.15    9.47
   5   5   5  171.47   24.19
   5  -5  -5  231.47   28.11
   5  -5  -5  248.80   29.43
  -5   5  -5  239.93   29.39
  -5  -5   5  213.27   38.02
   5   5   5  222.27   32.44
   5  -5  -5  230.98   23.83
  -5  -5  -5  233.70   27.19
   5  -5   5  204.16   28.53
   5  -5   5  216.71   37.63
   5   5  -5  218.96   23.24
   5   5  -5  241.45   29.17
  -5  -5  -5  208.48   28.79
  -5  -5  -5  203.62   23.51
  -6   0  -5    6.60    8.99
   6   0   5   25.36   15.88
  -6   0  -5   -6.05   10.18
  -6   0  -5    4.63   10.83
  -6   0   5   -6.04   10.84
   6   0  -5    4.14   10.80
   6   0   5    6.10   13.46
   6   0  -5    3.18    7.76
  -6   2  -5  162.69   24.53
  -6  -2   5  154.09   31.46
   6  -2  -5  181.96   23.95
   6   2   5  142.48   29.99
  -6   2  -5  181.36   19.44
  -6   2  -5  167.74   21.52
   6   2   5  143.28   22.37
   6  -2  -5  170.34   25.99
   6  -2   5  182.67   25.14
   6   2  -5  196.26   27.12
  -6   2   5  195.74   31.39
  -6  -2  -5  202.91   23.54
   6  -2   5  191.53   35.91
  -6  -2  -5  169.44   25.35
   6   2  -5  155.80   20.08
   6  -4  -5   64.12   20.70
  -6   4  -5   93.37   19.89
   6   4   5   49.44   14.31
   6  -4  -5   72.37   15.63
   6  -4  -5   66.32   11.98
   6   4   5   34.61   16.00
  -6   4  -5   70.13   14.76
   6   4   5   59.65   18.02
  -6   4   5   59.89   17.91
  -6  -4  -5   86.37   22.56
   6   4  -5   76.18   17.99
   6  -4   5   55.97   20.70
   6   4  -5   70.71   12.33
  -6  -4  -5   87.29   17.40
   6  -4   5   53.85   16.96
  -6  -4  -5   69.17   14.12
   6   6   5   74.46   22.04
  -6   6  -5   64.82   15.47
   6  -6  -5   59.84   17.41
   6   6   5   52.22   13.06
  -6  -6   5    9.76   21.02
   6  -6  -5   56.15   10.39
   6  -6  -5   60.59   12.01
  -6   6  -5   65.77   18.04
   6   6  -5   61.90   12.46
   6  -6   5   80.80   26.57
  -6  -6  -5   38.58   10.84
   6   6  -5   72.60   17.35
   6  -6   5   58.20   17.24
  -7  -1   5    0.90   13.48
  -7   1  -5    6.29    8.26
   7   1   5   10.76   13.96
   7   1   5   16.44   17.44
   7  -1  -5   28.99   13.09
  -7   1  -5    4.25   11.97
  -7   1  -5   12.40   12.11
  -7   1   5   -2.02   13.59
   7  -1   5   26.08   19.01
   7   1  -5    4.98    8.73
   7  -1   5   -3.35   15.10
  -7  -1  -5   -9.01   10.58
   7   1  -5   10.74   12.79
  -7  -1  -5   13.73   10.70
  -7   3  -5   -0.45   10.85
   7  -3  -5   -0.34    8.25
   7   3   5   -8.44   13.07
   7  -3  -5  -10.84    9.10
  -7  -3   5   19.96   16.14
   7  -3  -5    0.10   10.91
  -7   3  -5    5.37   11.68
  -7   3  -5    5.50    6.79
   7   3   5   -5.85   11.75
   7   3   5   -5.74   12.13
  -7  -3  -5   -2.31   11.76
   7   3  -5    3.48    9.31
  -7  -3  -5   -2.09   12.57
  -7  -3  -5  -11.38   10.07
   7  -3   5   -9.23   14.01
   7  -3   5   13.89   16.50
   7   3  -5   18.49   11.05
  -7   3   5   12.34   13.13
  -7   5  -5  181.04   23.68
  -7   5  -5  173.22   27.05
   7  -5  -5  183.26   23.52
   7   5   5  128.09   26.67
   7  -5  -5  139.64   19.03
   7  -5  -5  140.45   18.25
  -7  -5   5  157.48   33.45
   7   5   5  133.39   20.33
  -7  -5  -5  129.62   18.23
   7   5  -5  157.82   19.35
   7   5  -5  170.08   23.46
   7  -5   5  152.69   23.17
   7  -5   5  144.67   32.16
  -8   0  -5   -2.20   11.16
   8   0   5  -23.48   14.01
   8   0  -5   -0.30   12.60
  -8   0  -5    7.29   13.09
  -8   0   5   23.69   15.51
   8   0  -5   -1.02    8.43
  -8   0  -5   -5.95    8.96
  -8   2  -5    2.02    6.86
   8   2   5   31.83   19.24
  -8   2  -5   21.62   13.17
  -8  -2   5  -14.23   15.35
   8   2   5   -4.87   13.66
   8  -2  -5    3.06    7.96
  -8   2  -5   22.69   12.19
   8  -2  -5   14.45   11.79
   8  -2   5   -2.84   15.05
   8   2  -5    5.17    9.98
   8  -2   5   13.81   20.90
  -8  -2  -5    1.31   12.86
  -8   2   5   17.40   16.05
  -8  -2  -5   -6.07   12.55
   8   2  -5    6.99   11.71
  -8   4  -5   -2.34   12.90
  -8  -4   5    7.55   18.45
   8  -4  -5    2.36    9.95
   8  -4  -5    5.10   10.18
   8  -4  -5   -1.90   12.51
   8   4   5   -6.80   12.59
   8  -4  -5   10.89    9.04
   8   4   5    9.18   16.70
  -8   4  -5  -12.94   10.73
   8   4   5  -23.41   14.27
   8   4  -5   -5.70    9.00
   8  -4   5    5.01   14.61
   8  -4   5    9.03   18.10
  -8   4   5  -20.54   11.68
   8   4  -5   -4.21   10.54
  -8  -4  -5    6.56   11.37
  -8  -4  -5    5.55   12.25
  -8  -6   5  -22.06   24.52
   8  -6  -5   -6.62   11.29
  -8   6  -5   -5.61   23.44
   8   6   5   24.22   18.73
   8   6   5   39.77   21.69
  -8   6  -5   20.89   14.48
   8  -6  -5   20.94    9.91
   8  -6  -5   -7.28   14.05
   8   6  -5   13.22    9.60
  -8  -6  -5    8.16    9.83
   8   6  -5   17.74   14.35
   8  -6   5   21.35   14.91
   8   6  -5  -20.82   13.19
   8  -6   5   28.29   29.54
   9   1   5   74.25   19.02
   9   1   5   29.58   19.80
  -9   1  -5   69.92   15.21
   9  -1  -5   38.55   11.06
  -9   1  -5   51.40   10.43
  -9   1  -5   65.30   19.37
   9  -1  -5   70.92   19.49
  -9  -1   5   75.11   24.96
  -9  -1  -5   47.10   18.98
  -9  -1  -5   46.87   13.65
   9  -1   5   64.90   24.51
   9   1  -5   51.82   13.07
  -9   1   5   75.22   23.68
   9   1  -5   39.46   17.46
   9  -1   5   45.67   17.46
  -9  -1  -5   49.93   15.20
   9  -3  -5   -1.03    8.69
   9  -3  -5   -2.55   11.07
  -9  -3   5   14.96   17.72
   9   3   5   15.21   17.59
   9   3   5   15.51   13.98
  -9   3  -5   12.67   13.36
  -9   3  -5   -2.72   12.24
   9   3   5   -5.18   13.16
   9  -3  -5   -3.77   10.74
  -9  -3  -5  -11.99   13.31
   9  -3   5    4.01   30.30
   9   3  -5    0.03   14.37
   9   3  -5   -3.49    9.97
  -9   3   5  -19.08   13.34
  -9  -3  -5   20.08   14.60
   9  -3   5    0.58   18.86
  -9   5  -5   -4.23   12.01
  -9  -5   5    7.37   21.62
   9  -5  -5   -3.22    9.93
   9  -5  -5   21.75    9.84
  -9   5  -5    0.70   14.29
   9   5   5   27.64   15.23
   9  -5  -5   15.94   14.56
   9   5  -5  -20.06   13.44
   9  -5   5   44.51   21.72
   9   5  -5    5.85    9.75
   9  -5   5   36.68   16.24
  -9  -5  -5   -9.17   11.06
   9   5  -5    0.76    9.85
 -10   0  -5   -3.88   14.86
  10   0   5   14.72   17.69
  10   0   5   25.87   20.96
  10   0  -5   -2.59    8.75
  10   0  -5   -7.81   12.55
  10   0  -5    3.64   14.00
 -10   0  -5   -3.28    9.57
 -10   0   5   -9.86   14.55
 -10   0  -5   -8.61   13.66
  10  -2  -5   11.64    9.91
 -10   2  -5    2.62   13.54
  10  -2  -5   -3.39   12.47
  10   2   5   -3.57   15.08
  10   2   5    3.55   10.64
 -10   2  -5   -5.40   13.84
 -10  -2   5  -14.79   16.09
  10   2   5   -6.88   14.55
  10  -2   5   -8.64   17.61
  10   2  -5    5.59   14.08
  10  -2   5   -8.57   15.40
 -10   2   5    2.60   15.88
  10   2  -5   11.34   11.08
  10   2  -5    7.66   12.67
 -10  -2  -5    8.62   15.31
 -10  -2  -5   10.58   15.68
 -10   4  -5   75.27   20.66
  10  -4  -5   57.87   15.29
  10  -4  -5   33.10   13.07
 -10   4  -5   57.06   17.34
 -10  -4   5   65.62   27.44
  10   4   5   68.63   19.70
  10  -4  -5   52.67   11.92
  10   4   5   50.57   17.66
  10   4  -5   77.26   19.88
 -10  -4  -5   11.66   14.37
  10   4  -5   47.46   13.16
  10  -4   5   47.81   18.29
  10  -4   5   49.84   23.74
  11  -1  -5   -0.84   12.31
  11  -1  -5  -12.56   12.83
 -11   1  -5  -25.79   12.90
 -11   1  -5   -7.85   13.77
 -11  -1   5   -2.44   25.00
  11  -1  -5   -3.66   10.73
  11   1   5  -24.81   18.89
  11   1   5   -6.07   15.52
  11  -1   5   10.47   18.86
 -11  -1  -5   -0.80   14.14
  11   1  -5   -6.11   13.81
  11  -1   5    8.99   19.56
  11   1  -5  -13.92   13.49
 -11  -1  -5  -12.89   14.84
 -11   1   5   -5.71   16.89
  11   1  -5   -4.74   11.36
  11  -3  -5   -6.29   11.10
  11  -3  -5   19.40   10.29
 -11  -3   5   17.67   24.54
 -11   3  -5  -19.47   14.06
 -11   3  -5   21.47   15.21
  11   3   5   29.95   15.14
  11  -3  -5   18.21   13.10
  11  -3  -5   43.20   12.73
  11   3   5   30.28   16.80
  11   3  -5   19.90   16.12
  11   3  -5   26.23   11.81
  11  -3   5   27.10   21.59
  11   3  -5   42.44   17.65
 -11  -3  -5   30.77   16.37
  11  -3   5   26.31   18.15
  12   0  -5   -6.79   13.39
  12   0   5   49.36   25.34
 -12   0  -5   -5.67   17.00
  12   0   5   24.91   20.68
 -12   0   5    1.54   19.97
  12   0  -5   -2.80   15.42
  12   0  -5    2.84   11.53
 -12   0  -5    5.34   16.85
  12  -2  -5   26.24   12.10
  12  -2  -5   39.01   14.98
 -12   2  -5   18.11   15.86
  12   2   5   42.49   22.24
  12   2   5   33.49   12.82
 -12  -2   5   57.58   25.12
 -12   2  -5   44.92   17.35
  12  -2  -5   60.90   19.28
 -12  -2  -5   38.98   17.78
  12  -2   5   40.10   20.55
  12   2  -5   28.04   12.06
  12   2  -5   20.33   16.23
 -12  -2  -5    7.41   18.04
  12   2  -5    8.77   14.75
 -12   2   5   55.81   25.55
  12  -2   5    8.78   23.36
  12  -4  -5   26.12   11.57
  12  -4  -5   24.64   13.88
  12  -4  -5   23.05   13.35
  12   4   5   32.62   17.03
 -12   4  -5   -8.59   16.16
  12   4   5   48.41   31.07
  12  -4   5  -27.65   32.59
  12  -4   5   67.19   18.17
  12   4  -5   34.34   12.41
 -12  -4  -5   -5.62   15.07
  13  -1  -5   11.43   16.64
  13  -1  -5  -19.79   15.73
 -13  -1   5  -28.97   21.90
 -13   1  -5  -18.32   17.00
 -13   1  -5   15.13   18.70
  13   1   5   35.22   26.45
  13   1   5   22.38   20.94
  13   1  -5   -2.03   12.59
 -13   1   5   -1.00   26.13
  13   1  -5   28.39   17.06
  13  -1   5   39.39   22.70
  13   1  -5  -18.89   27.91
  13  -1   5    5.80   25.67
 -13   3  -5  -14.14   17.73
  13   3   5   45.22   15.74
  13  -3  -5   33.03   12.17
 -13  -3   5  -12.33   32.30
  13  -3  -5    2.16   14.06
  13  -3  -5    0.07   19.33
  13  -3  -5   10.27   10.92
  13  -3   5   36.15   27.98
  13   3  -5    5.20   14.56
  13  -3   5   48.76   20.47
 -13  -3  -5   -9.16   17.23
  13   3  -5    3.96   21.84
  13   3  -5   15.05   13.28
  14   0  -5    5.14   12.16
  14   0  -5   23.37   17.95
  14   0   5   67.57   24.62
 -14   0  -5   -3.13   19.29
  14   0  -5  -13.71   17.36
  14   0   5   28.89   34.57
  14  -2  -5  -27.22   20.94
 -14   2  -5   -7.99   18.81
 -14   2  -5   11.59   20.92
  14  -2  -5   -2.56   15.80
  14   2  -5   -0.42   25.25
  14  -2   5    8.69   23.23
  14  -2   5   -2.73   29.34
  14   2  -5   -8.42   11.48
   0   0   6  415.16   39.09
   0   0   6  404.75   47.23
   0   2  -6 2567.62  216.27
   0  -2  -6 2534.45  216.67
   0  -2  -6 2933.20  226.15
   0   2  -6 2736.01  224.83
   0  -2  -6 2703.12  217.81
   0  -4  -6 2112.15  176.44
   0   4  -6 2192.39  176.22
   0  -4  -6 2145.37  178.02
   0   4  -6 2258.97  184.41
   0  -6  -6  714.63   68.52
   0  -6   6  711.23   82.48
   0  -6  -6  669.52   62.82
   0   6  -6  925.31   72.97
  -1   1  -6  973.29   88.23
   1  -1  -6 1136.02   92.88
   1  -1  -6  924.93   80.54
  -1   1  -6  908.19   80.45
   1  -1  -6  790.81   82.64
  -1  -1  -6  959.58   81.95
   1   1  -6  923.27   80.51
   1   1  -6 1060.58   89.76
  -1  -1  -6  971.17   80.70
  -1  -1  -6 1138.15   90.92
  -1   3  -6  196.77   27.93
   1  -3  -6  277.36   31.72
  -1   3  -6  225.57   22.92
   1  -3  -6  202.37   23.25
   1  -3  -6  195.86   25.29
   1   3   6  148.92   29.75
  -1   3   6  138.19   21.59
  -1  -3  -6  214.67   26.11
  -1  -3  -6  264.89   31.21
  -1  -3  -6  223.40   24.58
   1   3  -6  231.42   29.32
   1   3  -6  207.98   22.95
  -1   3   6  145.50   29.66
   1  -3   6  143.53   25.07
  -1  -5   6  213.19   44.45
  -1   5  -6  327.64   36.09
   1   5   6  243.77   29.74
   1  -5  -6  331.09   30.71
   1  -5  -6  277.04   34.07
  -1   5  -6  351.72   31.05
   1  -5   6  271.38   50.05
   1   5  -6  330.84   30.50
   1   5  -6  352.53   36.82
   1  -5   6  245.31   33.55
  -1  -5  -6  266.80   34.03
  -1  -5  -6  271.39   30.33
   2   0  -6 1662.45  144.58
  -2   0  -6 1836.50  152.63
   2   0  -6 1904.13  154.28
  -2   0  -6 1803.59  144.72
  -2   0  -6 1725.07  145.47
  -2   2  -6  971.78   84.82
   2  -2  -6 1084.95   93.98
   2  -2  -6  922.51   84.65
   2  -2  -6  957.60   86.35
  -2   2  -6 1067.18   92.48
   2   2  -6  941.42   84.80
  -2  -2  -6 1038.84   86.74
   2   2  -6 1101.61   94.05
  -2  -2  -6 1148.18   94.22
  -2  -2  -6 1056.02   85.51
   2  -4  -6  906.20   76.48
  -2   4  -6  859.96   74.41
   2  -4  -6  734.37   66.76
   2  -4  -6  781.37   69.16
  -2   4  -6  893.82   67.26
  -2  -4  -6  733.88   69.11
   2   4  -6  755.95   74.15
   2  -4   6  619.99   79.82
  -2  -4  -6  933.42   75.95
  -2   4   6  636.60   73.89
   2   4  -6  740.10   66.52
  -2  -4  -6  793.99   67.34
  -2   6  -6  377.15   38.69
   2  -6  -6  266.66   30.27
  -2  -6   6  249.56   49.98
   2  -6  -6  256.78   38.31
  -2   6  -6  384.04   33.06
  -2  -6  -6  266.74   36.75
   2  -6   6  377.33   54.30
   2  -6   6  286.49   35.57
  -2  -6  -6  247.58   29.66
   2   6  -6  364.98   32.14
   2   6  -6  352.47   37.81
  -3   1  -6 3029.26  257.45
  -3   1  -6 3364.70  265.42
   3  -1  -6 3214.67  266.46
   3   1  -6 3006.53  257.47
  -3  -1  -6 3207.83  265.40
   3   1  -6 3430.92  267.41
  -3  -1  -6 3241.31  258.85
   3  -3  -6 1726.53  142.21
  -3   3  -6 1780.30  140.35
  -3   3  -6 1905.31  148.34
   3  -3  -6 1581.05  139.97
   3  -3  -6 1886.81  150.01
  -3  -3  -6 1756.78  142.31
   3   3  -6 1739.50  148.92
  -3  -3  -6 1874.75  141.23
  -3  -3  -6 1979.24  149.92
   3   3  -6 1548.04  139.96
   3  -3   6 1397.41  142.03
   3  -3   6 1525.61  155.17
   3  -5  -6 1137.13   97.13
  -3   5  -6 1359.68  105.62
   3  -5  -6 1245.03  100.55
  -3  -5   6  971.46  112.31
   3  -5   6 1275.38  115.78
   3  -5   6 1067.12  100.23
   3   5  -6 1135.20   97.06
  -3  -5  -6 1145.75   97.15
   3   5  -6 1206.90  105.09
  -3  -5  -6 1166.63  100.29
  -4   0  -6  123.66   17.69
   4   0  -6  119.95   17.01
  -4   0  -6  139.23   18.16
   4   0   6   78.18   18.27
   4   0   6  100.01   28.22
   4   0  -6  158.25   27.41
  -4   0   6   89.98   24.89
  -4   0  -6  135.31   24.18
   4   2   6   82.58   17.13
  -4   2  -6  165.41   24.72
  -4   2  -6  107.27   16.34
  -4  -2   6  105.22   26.80
   4  -2  -6   88.22   21.12
   4   2   6   61.93   23.28
   4  -2  -6   87.65   15.34
   4  -2  -6  116.96   17.26
  -4  -2  -6  109.82   17.22
   4   2  -6  121.97   16.68
   4  -2   6   76.05   27.24
   4   2  -6  112.31   23.56
   4  -2   6  102.96   20.77
  -4  -2  -6  130.35   23.51
  -4  -2  -6   99.77   16.74
  -4   2   6   70.91   22.37
   4  -4  -6  132.80   18.68
   4   4   6   79.83   23.70
   4   4   6  121.41   19.79
  -4  -4   6  108.39   31.59
  -4   4  -6  153.43   25.76
   4  -4  -6  194.30   26.56
  -4   4  -6  186.48   21.56
   4  -4  -6  184.50   22.87
   4   4  -6  140.25   25.96
   4  -4   6  139.95   24.57
   4   4  -6  158.97   20.09
  -4  -4  -6  176.10   25.76
  -4   4   6  132.33   27.55
   4  -4   6  106.52   32.16
  -4  -4  -6  181.14   22.88
  -4  -4  -6  144.89   23.50
  -4  -6   6  -38.82   24.55
   4  -6  -6   30.46   11.73
   4  -6  -6    6.43    8.86
  -4   6  -6   21.24   13.78
  -4   6  -6   25.20   13.85
   4   6   6   12.39   12.00
   4   6  -6   33.33   13.05
   4   6  -6   26.97   11.05
   4  -6   6   42.57   29.17
  -4  -6  -6    7.43   10.02
   4  -6   6    4.16   16.52
  -4  -6  -6  -11.37   17.37
   5  -1  -6  899.39   80.90
   5   1   6  789.58   82.99
  -5   1  -6 1037.96   81.79
  -5   1  -6 1005.54   88.44
   5  -1  -6 1011.48   90.40
  -5   1  -6 1058.77   82.23
  -5  -1  -6 1071.44   83.04
   5  -1   6  854.44   96.13
   5  -1   6  860.86   84.42
   5   1  -6  940.95   81.22
  -5  -1  -6  994.78   82.07
  -5  -1  -6 1016.24   89.37
   5   1  -6 1023.22   90.76
  -5   3  -6  981.93   73.51
   5  -3  -6  773.71   72.16
   5  -3  -6  911.70   81.36
   5  -3  -6  826.09   74.76
  -5   3  -6  907.96   80.80
   5  -3   6  805.63   76.43
  -5   3   6  738.70   95.72
   5  -3   6  805.76   89.43
   5   3  -6  860.09   72.68
  -5  -3  -6  878.55   75.01
  -5  -3  -6  892.84   74.06
   5   3  -6  809.69   85.56
  -5  -3  -6  879.83   81.06
  -5  -5   6  420.53   62.57
   5  -5  -6  511.60   50.32
  -5   5  -6  611.14   54.69
   5   5   6  406.46   46.94
   5  -5  -6  570.93   46.54
   5  -5   6  494.84   51.07
   5  -5   6  484.43   64.02
   5   5  -6  530.16   46.15
  -5  -5  -6  510.11   46.61
   5   5  -6  530.37   53.20
   6   0  -6 1573.34  135.72
   6   0  -6 1487.74  126.14
   6   0   6 1410.49  128.95
  -6   0  -6 1738.02  127.59
  -6   0  -6 1599.61  126.90
   6   0   6 1263.91  140.04
  -6   0  -6 1635.13  138.70
  -6   2  -6 2024.65  165.14
   6  -2  -6 2002.04  166.55
  -6   2  -6 1872.86  157.72
   6  -2  -6 1692.78  156.69
  -6   2  -6 2099.83  157.54
   6   2   6 1562.82  158.56
  -6   2   6 1536.88  166.69
   6  -2   6 1933.72  175.72
   6   2  -6 1992.76  157.49
  -6  -2  -6 2264.72  168.03
  -6  -2  -6 2186.40  159.78
   6   2  -6 1968.49  166.77
  -6  -2  -6 2021.09  158.44
   6  -2   6 1946.01  161.03
  -6  -4   6 1149.87  119.91
   6  -4  -6 1266.01  115.75
  -6   4  -6 1422.49  112.48
   6  -4  -6 1150.84  103.20
   6  -4  -6 1280.81  106.34
  -6   4  -6 1360.04  104.71
   6  -4   6 1286.34  122.01
   6   4  -6 1117.74  103.26
  -6  -4  -6 1290.11  104.58
   6  -4   6 1149.34  106.78
  -6  -4  -6 1389.23  125.66
   6   4  -6 1202.26  111.81
  -6  -4  -6 1296.68  107.44
  -6   6  -6  872.95   64.52
   6  -6  -6  683.88   61.41
   6   6   6  600.51   62.49
   6  -6  -6  872.03   71.66
   6  -6   6  793.97   66.99
   6   6  -6  713.36   61.60
  -6  -6  -6  593.76   60.54
   7  -1  -6    0.74   10.07
  -7  -1   6  -18.19   14.03
  -7   1  -6   -3.95   11.47
  -7   1  -6   15.43   13.24
   7   1   6   -3.94   14.03
  -7   1  -6    9.17   10.64
   7  -1  -6   30.25   15.27
   7   1   6    3.10   18.40
   7  -1   6  -20.25   16.39
  -7  -1  -6    6.31   13.34
  -7  -1  -6   27.44   16.22
  -7  -1  -6    4.26   14.69
   7   1  -6   16.69   11.59
   7   1  -6    4.67   14.16
  -7   1   6   -8.78   14.90
   7  -1   6  -25.44   17.92
   7   3   6    4.36   14.16
   7  -3  -6   17.36   13.26
   7   3   6   32.68   18.39
  -7  -3   6  -12.53   17.10
   7  -3  -6   16.49   11.97
  -7   3  -6   23.75   15.30
   7  -3  -6   13.71   10.27
  -7   3  -6   16.19    8.93
  -7  -3  -6   -8.94   12.98
  -7   3   6   16.75   17.53
   7  -3   6   25.02   24.03
  -7  -3  -6   23.75   16.11
   7   3  -6   32.42   15.32
  -7  -3  -6    2.05   14.09
   7   3  -6    7.29   11.34
   7  -3   6   15.59   18.30
  -7   5  -6   28.63    7.65
  -7   5  -6   28.04   14.15
   7  -5  -6    2.26   10.64
   7  -5  -6   21.55   11.31
   7   5   6   38.45   18.06
  -7   5  -6   -3.84   14.41
   7  -5  -6   -6.64   15.35
   7  -5   6   28.94   32.44
   7   5  -6   18.50   10.99
   7  -5   6   31.50   18.04
  -7  -5  -6    0.41   12.78
   7   5  -6   32.63   12.26
  -8   0  -6 1583.87  126.15
  -8   0  -6 1675.57  125.75
  -8   0  -6 1537.59  133.54
   8   0  -6 1620.82  135.77
   8   0   6 1402.97  128.25
   8   0   6 1361.49  141.67
   8   0  -6 1406.83  124.73
   8   2   6 1004.22   95.84
  -8   2  -6 1194.59   92.44
  -8  -2   6  866.74  105.45
  -8   2  -6 1245.69   94.51
   8  -2  -6 1209.97  103.20
   8   2   6  859.90  105.73
  -8   2  -6 1172.44  101.62
   8  -2  -6  997.75   92.59
  -8  -2  -6 1215.81   95.90
  -8   2   6  984.05  105.10
  -8  -2  -6 1243.49  104.24
   8   2  -6 1221.19  103.79
   8  -2   6 1070.43  111.37
  -8  -2  -6 1198.85   95.19
   8   2  -6 1111.75   93.25
   8  -2   6 1151.94   97.81
   8   4   6  751.22   83.29
  -8   4  -6 1010.36   80.66
   8  -4  -6 1001.64   82.01
  -8  -4   6  844.13   96.93
  -8   4  -6  971.29   76.74
   8  -4  -6  945.27   78.93
  -8   4  -6 1044.45   88.76
   8  -4  -6  790.30   78.08
   8  -4   6  965.77  106.70
   8  -4   6 1030.37   83.85
   8   4  -6  929.14   85.21
   8   4  -6  895.73   87.30
  -8  -4  -6  950.34   83.97
  -8  -4  -6  943.81   80.75
   9  -1  -6  928.00   85.22
  -9   1  -6 1072.25   85.05
   9   1   6  980.72  103.47
  -9   1  -6  989.10   95.84
   9  -1  -6 1093.14   96.62
   9   1   6 1002.96   89.70
  -9   1  -6 1038.71   86.94
  -9  -1  -6 1099.14   96.18
   9   1  -6  982.31   95.09
  -9   1   6  841.71   98.44
   9   1  -6  933.04   85.41
   9  -1   6 1082.45  106.83
  -9  -1  -6 1066.78   87.65
  -9  -1  -6 1101.25   87.14
   9  -1   6 1032.94   90.45
   9   3   6  613.41   60.72
   9  -3  -6  666.96   59.85
   9  -3  -6  615.31   57.12
  -9   3  -6  720.44   59.92
  -9   3  -6  656.15   66.13
   9  -3  -6  653.20   61.17
  -9  -3   6  576.52   74.91
   9  -3  -6  631.21   66.27
  -9  -3  -6  701.87   62.75
   9  -3   6  597.55   75.29
   9  -3   6  668.06   63.24
   9   3  -6  670.09   67.03
  -9  -3  -6  819.63   76.85
  -9  -3  -6  710.94   60.77
   9   3  -6  623.46   57.68
   9  -5  -6  396.92   40.86
   9   5   6  500.52   49.76
   9  -5  -6  478.98   47.16
   9   5   6  443.22   44.53
  -9   5  -6  534.56   45.39
   9  -5  -6  440.31   41.61
  -9  -5  -6  346.43   42.65
   9   5  -6  437.90   41.38
   9  -5   6  509.60   48.04
 -10   0  -6   35.17   18.91
 -10   0   6   26.30   20.58
  10   0  -6   25.96   12.76
  10   0   6   27.80   20.85
 -10   0  -6   -4.91   11.77
  10   0   6   51.97   24.26
 -10   0  -6   14.71   14.05
  10   0  -6   31.52   17.75
  10  -2  -6   22.84   12.15
  10  -2  -6   12.95   14.96
 -10  -2   6   39.52   22.84
 -10   2  -6   15.99    8.92
  10   2   6   42.23   23.15
  10  -2  -6   40.97   16.92
 -10   2  -6   65.78   20.17
 -10   2  -6   33.15   14.76
  10   2   6   42.48   17.51
 -10  -2  -6   31.30   19.97
 -10  -2  -6   22.35   17.16
  10   2  -6   36.59   13.50
 -10  -2  -6   10.59   16.08
 -10   2   6   45.15   21.98
  10  -2   6   59.10   27.63
  10   2  -6   40.77   16.87
  10  -2   6   58.87   21.75
  10  -4  -6   23.70   14.09
  10  -4  -6   41.53   12.13
 -10   4  -6   45.85   17.69
  10  -4  -6   15.82   15.39
 -10  -4   6   20.78   29.78
  10   4   6   50.97   17.77
  10   4   6   60.66   17.24
 -10   4  -6   16.89   17.88
  10   4  -6   51.22   16.19
  10   4  -6    2.55   17.72
  10  -4   6   63.83   19.73
  10  -4   6   53.83   31.87
 -10  -4  -6   19.94   16.32
  10   4  -6   34.41   12.92
  11   1   6 1495.51  128.01
 -11  -1   6 1137.67  133.97
  11  -1  -6 1321.21  118.74
  11   1   6 1360.37  139.25
  11  -1  -6 1326.16  119.68
  11  -1  -6 1511.57  130.74
 -11   1  -6 1483.54  120.97
 -11   1  -6 1539.90  130.00
  11  -1   6 1588.13  143.61
  11   1  -6 1448.58  119.38
 -11  -1  -6 1471.03  135.09
  11  -1   6 1632.69  124.72
 -11  -1  -6 1482.34  121.54
  11   1  -6 1311.83  120.04
  11   1  -6 1569.93  131.43
  11  -3  -6  577.61   51.94
  11   3   6  532.56   53.89
  11  -3  -6  466.13   48.95
 -11  -3   6  551.15   80.04
 -11   3  -6  573.55   60.43
  11  -3  -6  486.31   50.77
 -11   3  -6  585.76   52.94
 -11  -3  -6  565.89   53.68
  11   3  -6  501.78   52.52
  11   3  -6  599.08   59.38
  11  -3   6  667.85   56.65
  11  -3   6  704.01   77.10
  11   3  -6  527.43   49.74
  12   0  -6   40.44   18.58
 -12   0   6   34.75   28.98
 -12   0  -6   91.75   24.46
  12   0   6   88.53   31.99
  12   0   6   73.15   22.51
  12   0  -6    9.29   18.54
 -12  -2   6  377.09   65.32
 -12   2  -6  379.67   48.84
 -12   2  -6  437.55   42.84
  12   2   6  433.74   44.88
  12  -2  -6  346.09   40.56
  12  -2  -6  360.14   38.58
  12   2  -6  520.98   51.06
  12  -2   6  518.34   65.88
  12  -2   6  470.47   46.78
  12   2  -6  321.36   41.40
  12   2  -6  400.54   39.68
 -12  -2  -6  373.29   43.94
 -13  -1   6   86.48   36.63
  13  -1  -6  114.46   25.14
  13  -1  -6   28.98   18.59
 -13   1  -6   71.33   24.09
  13  -1  -6   74.76   16.32
 -13   1  -6   79.06   21.16
  13  -1   6  114.91   25.14
  13   1  -6   50.56   19.07
 -13  -1  -6   75.65   28.24
 -13  -1  -6   47.26   21.98
 -13   1   6   78.76   37.00
  13   1  -6   77.67   23.82
  13  -1   6  109.51   39.05
  13   1  -6   66.64   16.01
   0   0  -7   -5.97   13.09
   0   0  -7   19.81   11.73
   0   0   7   -0.80   15.47
   0   0   7   -7.14   11.78
   0   2  -7   42.78   12.99
   0  -2  -7   66.07   18.94
   0   2  -7   55.95   18.55
   0   2   7   11.72   17.26
   0  -2  -7   51.40   13.67
   0  -2  -7   46.71   15.40
   0   2   7    1.17   12.33
   0  -2   7   -7.80   15.96
   0  -2   7   -9.13   19.86
   0   4  -7   27.37   16.06
   0  -4  -7   32.21   13.98
   0  -4  -7   47.82   17.51
   0  -4   7  -10.76   18.36
   0   4  -7   38.85   13.36
   0   4   7    3.36   13.51
   0  -4   7   22.38   25.38
  -1   1  -7   -3.20   13.13
   1   1   7    1.83   16.12
   1   1   7   -8.17   11.37
   1  -1  -7   12.99   11.97
   1  -1  -7    5.72   11.96
  -1   1  -7   16.54   12.39
  -1  -1   7    5.10   18.88
  -1  -1   7  -18.92   13.30
   1  -1  -7   -7.69   12.65
  -1  -1  -7   11.64   10.86
   1   1  -7   15.32   14.38
  -1   1   7   -3.62   14.47
   1  -1   7   -0.06   20.98
  -1  -1  -7   -1.85   12.95
  -1  -1  -7   -2.01   12.34
   1  -1   7  -20.83   13.15
  -1   1   7  -18.68   11.85
   1   1  -7    1.83   10.08
  -1  -3   7   12.12   21.03
   1   3   7  -14.63   15.52
   1  -3  -7   -2.00   12.13
   1  -3  -7   14.59   13.08
  -1   3  -7   10.22   13.84
   1  -3  -7   29.53   12.26
   1   3   7   -2.56   12.71
  -1   3  -7   40.88   15.64
  -1  -3   7  -26.33   14.67
   1  -3   7  -23.74   16.87
  -1  -3  -7   24.22   13.30
  -1   3   7   12.25   12.05
   1   3  -7   26.69   13.97
   1  -3   7  -18.46   20.59
  -1  -3  -7   16.03   14.74
   1   3  -7    7.18   14.71
  -1   3   7   14.29   18.04
  -1  -3  -7    9.32   13.46
   1  -5  -7    2.00   16.02
  -1   5  -7   43.45   13.85
  -1   5  -7   22.31   13.12
   1   5   7  -10.64   14.63
   1  -5  -7   25.97   13.38
  -1  -5   7  -17.27   30.71
   1  -5   7  -41.26   17.82
   1   5  -7    2.08   10.70
   1   5  -7   19.78   12.33
  -1  -5  -7   24.18   13.70
  -1  -5  -7  -23.93   14.23
  -2   0  -7    3.54   11.45
   2   0  -7    3.24   11.69
   2   0   7   -0.46   16.87
  -2   0  -7   11.26   12.29
  -2   0   7  -23.58   12.17
   2   0  -7   -2.40    9.92
  -2   0  -7   21.69   14.09
   2   0   7   -7.51   14.97
  -2   0   7  -23.59   12.94
   2  -2  -7   12.45   13.57
   2  -2  -7    5.81   10.51
  -2  -2   7  -30.88   12.24
  -2  -2   7  -21.74   16.94
  -2   2  -7   10.61   11.74
   2   2   7  -10.72   16.27
   2   2   7  -10.37   12.66
   2  -2  -7    6.57   10.89
  -2   2  -7    8.81   11.66
  -2   2   7    9.10   16.22
   2  -2   7  -12.92   19.17
  -2   2   7  -13.82   11.07
   2   2  -7    7.92   11.72
   2   2  -7   38.77   17.23
  -2  -2  -7   -4.59   11.87
  -2  -2  -7   -4.82   12.08
   2  -2   7  -12.40   17.21
  -2  -2  -7    7.88   13.67
  -2   4  -7   24.14   13.83
  -2   4  -7   22.46   14.72
   2  -4  -7   48.60   13.84
   2  -4  -7   23.45   16.69
  -2  -4   7    5.30   23.18
   2   4   7   15.46   14.19
  -2  -4  -7   17.41   14.27
   2   4  -7   29.25   12.71
   2  -4   7    2.03   37.10
  -2  -4  -7   35.37   14.72
   2   4  -7   39.29   17.16
   2  -4   7    0.25   22.94
   3  -1  -7   31.45   12.38
  -3  -1   7    0.03   17.55
  -3   1  -7   34.43   15.42
   3  -1  -7   28.36   17.00
   3   1   7   -4.76   18.89
   3   1   7   -0.58   13.35
  -3   1  -7   39.21   12.24
  -3   1  -7   20.42   11.65
  -3  -1  -7   29.96   14.37
   3   1  -7   26.46   15.50
   3  -1   7   12.44   21.69
  -3   1   7    9.70   17.26
   3  -1   7   26.05   16.81
   3   1  -7   37.45   11.45
  -3  -1  -7   37.30   16.89
  -3  -1  -7   32.02   13.74
   3   3   7    6.61   13.39
  -3  -3   7  -25.80   19.11
   3  -3  -7    7.56   13.47
  -3   3  -7   10.63   12.54
   3  -3  -7   11.09   13.41
  -3   3  -7  -14.02   11.62
   3   3   7   11.38   16.69
   3  -3  -7   16.75   11.76
   3  -3   7    2.69   18.62
  -3   3   7    6.63   17.58
  -3  -3  -7    0.88   13.62
  -3  -3  -7   16.43   14.07
   3   3  -7   42.05   16.95
   3  -3   7    6.62   25.29
   3   3  -7   19.37   12.37
  -3  -3  -7   18.34   14.11
   3  -5  -7   45.83   13.21
   3  -5  -7  -28.03   16.09
  -3   5  -7   21.73   14.40
   3   5   7    3.31   16.03
  -3   5  -7    9.43   12.33
   3   5  -7   18.02   13.87
   3  -5   7   -8.13   18.43
   3   5  -7   21.30   12.14
  -3  -5  -7   -0.74   14.07
  -3  -5  -7   -0.78   17.49
  -4   0  -7    7.97   12.63
  -4   0  -7   -8.02   12.26
   4   0   7    5.86   21.88
  -4   0   7   -1.23   16.24
   4   0  -7    7.23    9.80
   4   0  -7   18.44   14.34
  -4   0  -7    7.06   12.54
   4   0   7  -23.67   15.51
   4  -2  -7   18.80   12.02
  -4  -2   7  -37.88   16.63
  -4   2  -7   16.15   10.58
  -4   2  -7   12.42   13.34
   4   2   7   26.52   21.32
   4  -2  -7   11.72   10.75
  -4   2  -7   21.61   13.03
   4  -2  -7   12.45   13.97
   4   2   7    7.03   15.11
  -4  -2  -7    7.97   14.69
  -4   2   7  -19.31   13.52
   4   2  -7   14.65   11.46
   4   2  -7   -1.06   12.74
  -4  -2  -7    6.48   13.83
   4  -2   7   -5.91   23.33
   4  -2   7   19.77   19.04
  -4  -2  -7    0.47   11.94
  -4   4  -7   20.06   13.48
  -4   4  -7   21.95   14.33
   4  -4  -7   -0.69   13.72
   4   4   7   -3.16   13.48
  -4  -4   7  -14.28   23.49
   4  -4  -7    9.75   11.47
  -4  -4  -7   31.88   15.76
   4  -4   7   15.85   19.98
   4   4  -7   23.30   13.77
   4   4  -7   14.23   14.94
  -5   1  -7   18.35   14.45
  -5  -1   7    2.30   27.36
   5  -1  -7    3.90   14.01
   5   1   7  -28.45   18.77
  -5   1  -7    8.65   11.72
   5  -1  -7   25.31   12.43
   5   1   7    6.14   16.62
  -5   1  -7   20.06   13.65
   5  -1   7  -20.78   28.11
  -5  -1  -7    8.22   14.06
   5   1  -7   25.61   16.39
  -5  -1  -7   23.41   15.03
   5   1  -7   15.02   12.19
   5  -1   7   -8.04   18.24
  -5  -1  -7    2.92   12.79
  -5   1   7    6.32   16.65
   5   3   7   24.02   30.37
  -5  -3   7  -34.12   19.53
   5  -3  -7    3.73   13.21
   5  -3  -7   11.36   10.99
   5  -3  -7    1.57   14.15
   5   3   7    9.57   15.00
  -5   3  -7  -14.08   11.42
  -5   3  -7   10.50   13.44
   5   3  -7    9.27   12.03
  -5  -3  -7  -10.91   15.15
  -5  -3  -7   -5.89   14.07
   5   3  -7   -4.11   13.47
  -5  -3  -7  -16.21   12.98
   5  -3   7  -29.14   17.54
  -5   3   7   15.90   19.51
   5  -3   7  -18.02   22.87
  -5   5  -7  189.78   24.90
   5  -5  -7  126.38   25.24
   5   5   7  120.69   23.09
   5  -5  -7  190.84   22.56
   5  -5   7  152.42   27.87
   5   5  -7  211.15   25.06
  -5  -5  -7  133.40   22.15
  -6   0  -7    0.58   12.95
  -6   0  -7   -2.12   13.06
   6   0  -7    4.01   13.35
  -6   0  -7   -2.68   13.03
   6   0   7    2.67   19.05
  -6   0   7   -5.63   18.18
   6   0  -7    3.39   11.29
   6   0   7    0.56   22.22
   6  -2  -7   71.41   17.00
  -6  -2   7   35.79   24.44
   6   2   7   53.72   24.08
  -6   2  -7   92.66   20.74
  -6   2  -7   61.03   14.91
   6  -2  -7   58.48   30.00
   6   2   7   56.11   19.28
   6  -2  -7   70.02   14.54
  -6   2  -7   73.32   15.61
   6   2  -7   54.99   19.94
   6  -2   7   94.89   24.28
   6   2  -7   79.73   16.15
  -6  -2  -7   88.62   18.73
  -6  -2  -7   64.54   18.64
  -6   2   7   69.19   24.90
   6  -2   7   69.03   30.21
  -6   4  -7   40.20   20.37
  -6   4  -7   62.02   15.63
   6  -4  -7   20.66   16.90
   6  -4  -7   68.42   21.35
  -6  -4   7  -13.79   26.85
  -6   4  -7   48.16   11.02
   6   4   7   21.76   16.07
   6  -4   7   27.26   20.53
   6   4  -7   71.23   18.69
   6  -4   7   41.66   30.13
  -6  -4  -7   25.33   19.63
   6   4  -7   33.49   13.20
  -7   1  -7    9.88   14.95
   7  -1  -7  -12.63   13.58
  -7   1  -7   -3.40   12.24
   7   1   7   19.13   24.19
   7   1   7   14.68   18.64
  -7  -1   7  -12.84   19.26
  -7   1  -7    0.23   13.48
   7  -1  -7   14.03   12.03
   7  -1   7   21.94   27.99
  -7  -1  -7   11.30   15.45
  -7  -1  -7    6.82   14.67
   7   1  -7   11.80   12.69
  -7  -1  -7   19.12   15.73
  -7   1   7    0.89   20.33
   7  -1   7   -1.00   20.67
   7   1  -7   -0.54   16.10
  -7  -3   7  -22.20   22.38
  -7   3  -7   11.69   10.21
  -7   3  -7   19.59   14.85
   7  -3  -7   15.87   13.23
   7  -3  -7    6.19   11.35
   7   3   7   -3.23   17.38
  -7   3  -7   10.11   13.91
   7  -3   7   -4.91   19.80
  -7  -3  -7  -18.15   16.99
   7   3  -7    1.17   11.96
   7   3  -7    6.42   13.52
   7  -3   7   44.90   27.91
  -7  -3  -7  -10.35   15.89
  -8   0  -7   -7.50   12.49
   8   0  -7   13.42   16.04
  -8   0   7   -7.91   22.56
   8   0   7   27.24   26.12
   8   0   7   18.63   19.71
  -8   0  -7   -7.44   13.35
  -8   0  -7   17.47   14.94
   8   0  -7   17.79   11.92
   8  -2  -7   21.95   10.78
  -8   2  -7   -5.56   10.92
   8  -2  -7   30.14   17.63
  -8   2  -7  -19.03   12.42
   8   2   7    3.84   21.13
  -8  -2   7    9.70   27.65
  -8   2  -7    0.83   12.74
  -8   2   7   -2.10   20.15
  -8  -2  -7   -1.72   15.72
  -8  -2  -7   -3.60   16.25
  -8  -2  -7   -7.69   15.85
   8  -2   7   14.44   26.59
   8   2  -7    8.55   13.57
   8  -2   7   -0.92   19.14
   8   2  -7    2.87   10.94
  -8   4  -7    7.47   15.08
   8   4   7   16.06   17.84
   8  -4  -7   19.39   15.68
   8  -4  -7   21.90   11.64
  -8   4  -7    6.86    9.02
   8  -4   7   30.14   20.54
   8   4  -7   34.56   13.12
  -8  -4  -7    2.23   16.35
  -9   1  -7   11.44   15.69
  -9   1  -7   10.64   12.97
   9  -1  -7   18.34   12.65
   9   1   7   63.92   28.71
  -9   1  -7   37.75   15.85
  -9  -1   7    0.85   22.63
   9  -1  -7   20.55   18.68
   9  -1   7   87.20   32.08
  -9  -1  -7   12.22   15.44
  -9  -1  -7   21.76   17.51
   9   1  -7   32.96   14.06
   9   1  -7   21.53   18.65
  -9   1   7   10.57   22.65
   9  -1   7   33.41   19.89
   9   3   7   38.87   18.00
  -9   3  -7  -33.49   14.38
  -9   3  -7  -10.51    8.71
  -9   3  -7   22.27   15.73
   9  -3  -7  -20.99   13.79
   9  -3  -7   13.56   10.82
  -9  -3   7  -24.56   29.31
   9   3  -7   18.06   11.56
   9  -3   7   21.77   19.12
  -9  -3  -7  -34.53   17.70
   9   3  -7   48.94   16.82
   9  -3   7  124.89   34.53
  -9  -3  -7  -16.24   16.59
 -10   0   7  -16.60   24.09
  10   0   7    4.95   19.97
  10   0   7   60.90   31.26
  10   0  -7   28.48   18.75
 -10   0  -7   -1.20   12.91
 -10   0  -7  -11.18   14.34
 -10   2  -7   -4.45    9.81
  10  -2  -7   17.65   11.83
  10   2   7   23.71   18.05
  10  -2  -7   -5.28   16.04
 -10   2  -7    5.46   14.19
 -10  -2   7   -5.89   30.96
 -10   2  -7    8.21   16.76
  10  -2   7   18.41   19.75
  10   2  -7   10.74   11.99
  10  -2   7   26.49   29.30
 -10  -2  -7  -25.90   16.34
 -10  -2  -7   16.31   17.88
  11  -1  -7   18.25   13.82
 -11   1  -7    7.80   16.82
  11  -1  -7   65.21   19.95
  11  -1  -7   -0.36   15.63
 -11  -1   7   -7.86   28.45
  11   1   7   56.65   22.32
 -11   1  -7   -5.41   17.10
 -11  -1  -7  -28.23   14.52
 -11   1   7   25.76   29.74
 -11  -1  -7   -4.11   19.34
 -11  -1  -7   -1.80   18.71
  11  -1   7   91.57   37.94
  11   1  -7    6.69   13.89
  11   1  -7  -28.06   15.87
  11  -1   7   52.07   22.90
  11   1  -7   18.18   16.54
   0   0  -8 2794.77  226.93
   0   0  -8 3042.09  238.97
   0   0  -8 2609.21  227.34
   0   2  -8 1339.08  114.17
   0   2  -8 1443.98  125.34
   0  -2  -8 1457.93  125.92
   0  -2  -8 1370.68  114.32
   0  -2  -8 1278.90  115.78
   0  -4   8  619.36   96.41
   0  -4  -8  901.85   74.43
   0  -4  -8  799.25   77.08
   0   4  -8  909.57   83.35
   0   4  -8  894.59   73.95
  -1   1  -8  185.29   32.82
  -1   1  -8  154.52   22.68
   1  -1  -8  168.28   22.79
   1  -1  -8  184.63   33.12
   1  -1  -8  202.34   26.15
  -1  -1  -8  167.77   31.23
  -1  -1  -8  173.95   23.03
  -1  -1  -8  141.67   23.99
   1   1  -8  183.81   33.91
   1  -1   8   97.24   26.68
   1   1  -8  186.31   23.96
  -1   3  -8  420.12   44.86
   1  -3  -8  359.79   38.65
   1   3   8  243.16   34.79
  -1  -3   8  192.80   51.67
  -1   3  -8  396.73   34.69
   1   3  -8  350.77   42.35
   1   3  -8  332.29   34.09
  -1  -3  -8  315.86   38.44
   1  -3   8  222.18   38.56
   1  -3   8  275.12   56.74
  -2   0  -8  389.11   45.21
  -2   0  -8  333.21   37.53
  -2   0  -8  393.38   37.17
   2   0  -8  339.45   35.53
   2   0  -8  329.86   45.50
  -2  -2   8  321.98   65.59
   2  -2  -8  464.93   49.34
  -2   2  -8  478.51   47.23
  -2   2  -8  538.59   56.72
   2  -2  -8  603.53   58.82
   2  -2  -8  557.70   47.75
   2   2  -8  519.06   47.92
   2  -2   8  416.12   71.58
  -2  -2  -8  496.53   50.66
  -2  -2  -8  565.20   58.31
  -2  -2  -8  585.46   48.77
   2   2  -8  445.67   55.82
  -2   4  -8  383.54   35.08
  -2  -4   8  149.18   55.18
   2  -4  -8  352.11   34.34
  -2   4  -8  360.24   41.57
   2   4   8  234.81   35.25
   2  -4  -8  308.01   38.96
   2  -4   8  228.39   55.35
   2   4  -8  329.88   42.09
   2  -4   8  292.44   41.29
  -2  -4  -8  332.39   39.57
  -2  -4  -8  363.23   36.71
   2   4  -8  339.86   34.35
  -3   1  -8 1153.33   95.32
   3  -1  -8 1213.11  106.93
   3  -1  -8  965.22   95.38
   3  -1  -8 1007.18   94.48
  -3   1  -8 1137.48  104.46
  -3   1  -8 1105.92   95.50
  -3  -1  -8 1199.79   97.33
   3   1  -8  994.73   94.58
   3   1  -8 1198.08  107.07
  -3  -1  -8 1256.35  106.05
  -3  -1  -8 1256.18   96.00
  -3   3  -8 1175.54  101.91
  -3   3  -8 1157.57   92.81
   3  -3  -8 1086.56   95.34
   3  -3  -8 1024.28   92.22
  -3  -3  -8 1156.00   93.95
   3  -3   8  837.79   96.92
  -3  -3  -8 1135.15   95.58
   3   3  -8 1063.02   92.30
   3   3  -8 1194.37  103.71
   3  -3   8 1048.45  117.03
   4   0   8   94.51   26.12
   4   0   8  124.34   37.67
  -4   0  -8  148.19   22.33
   4   0  -8  135.82   28.47
   4   0  -8  137.18   21.07
  -4   0  -8  204.05   29.72
  -4   0  -8  130.31   21.60
  -4   2  -8  125.13   19.24
   4   2   8   78.30   22.54
   4  -2  -8  126.57   18.89
   4   2   8   24.82   31.10
  -4   2  -8  149.22   26.69
  -4   2  -8  127.35   18.60
  -4  -2   8   66.80   37.35
   4  -2  -8  116.21   26.58
  -4  -2  -8  118.16   23.54
   4   2  -8  108.56   18.85
  -4  -2  -8  110.66   22.46
   4   2  -8  113.87   27.78
  -4  -2  -8  125.96   27.96
   4  -2   8   78.99   24.63
   4  -4  -8   63.76   15.16
  -4   4  -8   68.98   16.22
   4   4  -8   64.21   15.55
  -4  -4  -8   37.80   18.35
   4  -4   8   55.25   25.62
   5  -1  -8  787.35   79.27
  -5   1  -8 1025.02   90.01
  -5   1  -8  982.78   80.85
  -5   1  -8 1010.69   81.34
   5  -1  -8  964.45   91.97
   5   1   8  758.67   93.34
  -5  -1  -8 1005.26   82.76
   5   1  -8  967.52   91.58
   5   1  -8  862.62   79.74
   5  -1   8  882.35  103.45
  -5  -1  -8 1008.82   81.49
   5  -1   8  863.22   85.06
  -5   3  -8  720.55   61.43
  -5   3  -8  821.08   63.23
   5  -3  -8  683.75   65.03
   5  -3  -8  591.98   60.64
  -5   3  -8  708.07   70.44
   5   3  -8  628.79   61.40
   5  -3   8  737.94   91.98
  -5  -3  -8  738.55   64.44
   5  -3   8  609.37   68.76
   5   3  -8  677.71   71.25
  -5  -3  -8  740.59   65.95
  -6   0  -8 1076.86   96.15
  -6   0  -8 1019.27   86.46
   6   0  -8  888.50   85.14
   6   0   8  923.19  108.19
  -6   0  -8 1171.93   88.27
   6   0   8  952.73   95.70
   6   0  -8  925.64   96.27
  -6   2  -8  716.51   73.36
   6   2   8  559.12   62.68
   6  -2  -8  601.18   58.33
  -6   2  -8  713.63   60.25
   6  -2  -8  656.58   60.99
  -6   2  -8  714.30   59.86
   6   2  -8  603.42   73.87
   6   2  -8  652.51   59.41
  -6  -2  -8  720.43   61.56
   6  -2   8  687.95   86.25
   6  -2   8  616.62   66.32
   7   1   8   23.30   27.10
   7   1   8   30.97   21.63
   7  -1  -8   44.03   19.78
  -7  -1   8  -13.61   25.93
  -7   1  -8   32.64   16.96
  -7   1  -8   14.71   14.93
  -7   1  -8   22.95   16.90
   7  -1  -8   29.58   14.03
  -7  -1  -8   30.89   17.94
  -7   1   8  -16.62   22.27
   7   1  -8   51.13   19.65
  -7  -1  -8   22.97   17.43
   7   1  -8   46.30   15.70
   7  -1   8  102.43   40.24
  -7  -1  -8    0.84   16.73
  -7   3  -8   16.08   16.56
  -7   3  -8   33.51   12.61
  -7   3  -8   -5.41   19.84
   7  -3  -8   36.21   17.61
   7  -3   8   38.50   22.73
   7  -3   8   47.17   51.59
  -7  -3  -8  -24.98   18.11
   7   3  -8   39.90   13.49
   8   0   8  701.19   70.67
   8   0   8  852.83   92.97
  -8   0  -8  683.72   77.49
  -8   0  -8  741.55   65.56
  -8   0  -8  717.15   65.34
   8   0  -8  745.69   75.37
   8   0  -8  650.14   63.23
   8  -2  -8  617.57   63.89
  -8   2  -8  734.18   63.40
  -8   2  -8  610.61   71.15
   8  -2   8  809.92   77.85
   8  -2   8  909.96   98.85
   8   2  -8  755.14   74.56
  -8  -2  -8  761.75   68.08
  -9  -1   8  315.53   64.89
  -9   1  -8  481.29   46.56
  -9   1  -8  469.65   55.76
  -9   1  -8  486.65   48.54
   9   1  -8  542.50   58.14
   9   1  -8  447.58   46.29
   9  -1   8  568.85   55.42
   9  -1   8  572.40   77.82
  -9  -1  -8  505.38   50.39
   0   0  -9   43.75   15.51
   0   0   9  -22.71   18.27
   0   0  -9   15.56   16.60
   0   0   9  -20.94   50.34
   0   0  -9   50.54   14.90
   0  -2   9    2.80   39.80
   0   2  -9   54.97   16.90
   0  -2  -9   61.83   16.64
  -1  -1   9   10.38   34.92
   1   1   9   38.66   46.36
  -1   1  -9   23.35   17.79
  -1   1  -9   40.40   19.36
   1  -1  -9   43.15   19.73
   1  -1  -9   30.57   13.61
  -1   1  -9   57.70   13.79
   1  -1  -9   29.85   14.37
   1   1   9   -0.82   20.10
   1  -1   9  -19.73   34.66
  -1  -1  -9   20.12   16.80
  -1   1   9  -18.13   16.51
   1  -1   9  -26.15   22.16
  -1   1   9  -19.64   35.27
   1   1  -9   51.16   18.72
  -1  -1  -9   36.69   15.98
  -1  -1  -9   46.40   20.28
   2   0   9  -36.57   20.88
   2   0   9  -24.99   28.53
  -2   0  -9   20.35   17.74
   2   0  -9   18.84   17.88
   2   0  -9   43.16   13.61
  -2   0   9   40.79   32.71
  -2   0  -9   44.50   15.46
  -2   0  -9   31.59   14.84
  -2   2  -9   37.09   19.96
  -2  -2   9  -24.11   30.49
  -2   2  -9   59.36   13.63
   2  -2   9   72.89   41.39
   2   2  -9   15.80   18.68
   2  -2   9   -1.56   28.82
  -3  -1   9   16.86   29.69
  -3   1  -9   51.80   17.39
   3  -1  -9   65.43   16.32
  -3   1  -9   18.99   18.59
   3  -1  -9   56.40   18.69
  -3   1  -9   36.83   17.61
   3   1   9   -5.37   20.71
   3   1  -9   65.35   16.98
   3   1  -9   50.35   19.86
   3  -1   9   88.38   38.98
  -3  -1  -9   87.24   25.96
  -3  -1  -9   29.01   15.59
  -3  -1  -9   18.88   15.96
   3  -1   9   -9.43   22.48
   4   0  -9   37.12   14.33
   4   0   9   12.18   23.65
   4   0  -9   41.17   18.84
  -4   0  -9   -2.51   15.60
  -4   0  -9   33.44   17.42
  -4   0  -9   17.76   16.35
   4   0   9  -15.73   32.90
  -4   0   9  -24.49   26.15
   0   0   0    0.00    0.00

_computing_structure_solution     'SHELXT 2014/5 (Sheldrick, 2014)'
;
_shelx_hkl_checksum   69106

