 
data_Li2HC3N3O3_2H2O
 
_audit_creation_method            'SHELXL-2014/7'
_shelx_SHELXL_version_number      '2014/7'
_chemical_name_systematic         ?
_chemical_name_common             ?
_chemical_melting_point           ?
_chemical_formula_moiety          ?
_chemical_formula_sum
 'C3 H5 Li2 N3 O5' 
_chemical_formula_weight          176.98

loop_
 _atom_type_symbol
 _atom_type_description
 _atom_type_scat_dispersion_real
 _atom_type_scat_dispersion_imag
 _atom_type_scat_source
 'C'  'C'   0.0033   0.0016
 'International Tables Vol C Tables 4.2.6.8 and 6.1.1.4'
 'H'  'H'   0.0000   0.0000
 'International Tables Vol C Tables 4.2.6.8 and 6.1.1.4'
 'Li'  'Li'  -0.0003   0.0001
 'International Tables Vol C Tables 4.2.6.8 and 6.1.1.4'
 'N'  'N'   0.0061   0.0033
 'International Tables Vol C Tables 4.2.6.8 and 6.1.1.4'
 'O'  'O'   0.0106   0.0060
 'International Tables Vol C Tables 4.2.6.8 and 6.1.1.4'
 
_space_group_crystal_system       monoclinic
_space_group_IT_number            14
_space_group_name_H-M_alt         'P 21/c'
_space_group_name_Hall            '-P 2ybc'
 
_shelx_space_group_comment
;
The symmetry employed for this shelxl refinement is uniquely defined
by the following loop, which should always be used as a source of
symmetry information in preference to the above space-group names.
They are only intended as comments.
;
 
loop_
 _space_group_symop_operation_xyz
 'x, y, z'
 '-x, y+1/2, -z+1/2'
 '-x, -y, -z'
 'x, -y-1/2, z-1/2'
 
_cell_length_a                    3.4142(18)
_cell_length_b                    16.974(11)
_cell_length_c                    11.176(8)
_cell_angle_alpha                 90
_cell_angle_beta                  90.92(2)
_cell_angle_gamma                 90
_cell_volume                      647.6(7)
_cell_formula_units_Z             4
_cell_measurement_temperature     88(2)
_cell_measurement_reflns_used     2524
_cell_measurement_theta_min       3.01
_cell_measurement_theta_max       27.08
 
_exptl_crystal_description        strip
_exptl_crystal_colour            colorless
_exptl_crystal_density_meas       ?
_exptl_crystal_density_method     ?
_exptl_crystal_density_diffrn     1.815          
_exptl_crystal_F_000              360
_exptl_transmission_factor_min    0.6496 
_exptl_transmission_factor_max   0.7456
_exptl_crystal_size_max           ?
_exptl_crystal_size_mid           ?
_exptl_crystal_size_min           ?
_exptl_absorpt_coefficient_mu     0.163
_shelx_estimated_absorpt_T_min    ?
_shelx_estimated_absorpt_T_max    ?
_exptl_absorpt_correction_type    multi-scan
_exptl_absorpt_correction_T_min   ?
_exptl_absorpt_correction_T_max   ?
_exptl_absorpt_process_details    ?
_exptl_absorpt_special_details    ?
_diffrn_ambient_temperature       88(2)
_diffrn_radiation_wavelength      0.71073
_diffrn_radiation_type            MoK\a
_diffrn_source                    ?
_diffrn_measurement_device_type    'Bruker APEX-II CCD'
_diffrn_measurement_method         '\f and \w scans'
_diffrn_detector_area_resol_mean  ?
_diffrn_reflns_number             11527
_diffrn_reflns_av_unetI/netI      0.0459
_diffrn_reflns_av_R_equivalents   0.0912
_diffrn_reflns_limit_h_min        -4
_diffrn_reflns_limit_h_max        4
_diffrn_reflns_limit_k_min        -21
_diffrn_reflns_limit_k_max        22
_diffrn_reflns_limit_l_min        -14
_diffrn_reflns_limit_l_max        14
_diffrn_reflns_theta_min          3.014
_diffrn_reflns_theta_max          27.425
_diffrn_reflns_theta_full         25.242
_diffrn_measured_fraction_theta_max   0.983
_diffrn_measured_fraction_theta_full  0.993
_diffrn_reflns_Laue_measured_fraction_max    0.983
_diffrn_reflns_Laue_measured_fraction_full   0.993
_diffrn_reflns_point_group_measured_fraction_max   0.983
_diffrn_reflns_point_group_measured_fraction_full  0.993
_reflns_number_total              1467
_reflns_number_gt                 1135
_reflns_threshold_expression      'I > 2\s(I)'
_reflns_Friedel_coverage          0.000
_reflns_Friedel_fraction_max      .
_reflns_Friedel_fraction_full     .
 
_reflns_special_details
;
 Reflections were merged by SHELXL according to the crystal
 class for the calculation of statistics and refinement.
 
 _reflns_Friedel_fraction is defined as the number of unique
 Friedel pairs measured divided by the number that would be
 possible theoretically, ignoring centric projections and
 systematic absences.
;
 
_computing_data_collection       'Bruker APEX2'
_computing_cell_refinement       'Bruker SAINT'
_computing_data_reduction        'Bruker SAINT'
_computing_structure_solution     'SHELXS-97 (Sheldrick 2008)'
_computing_structure_refinement 'SHELXL-2014/7 (Sheldrick, 2014)'
_computing_molecular_graphics      'Bruker SHELXTL'
_computing_publication_material   'Bruker SHELXTL'
_refine_special_details           ?
_refine_ls_structure_factor_coef  Fsqd
_refine_ls_matrix_type            full
_refine_ls_weighting_scheme       calc
_refine_ls_weighting_details
'w=1/[\s^2^(Fo^2^)+(0.0478P)^2^] where P=(Fo^2^+2Fc^2^)/3'
_atom_sites_solution_primary      ?
_atom_sites_solution_secondary    ?
_atom_sites_solution_hydrogens    difmap
_refine_ls_hydrogen_treatment     refall
_refine_ls_extinction_method      none
_refine_ls_extinction_coef        .
_refine_ls_number_reflns          1467
_refine_ls_number_parameters      138
_refine_ls_number_restraints      0
_refine_ls_R_factor_all           0.0587
_refine_ls_R_factor_gt            0.0403
_refine_ls_wR_factor_ref          0.0865
_refine_ls_wR_factor_gt           0.0807
_refine_ls_goodness_of_fit_ref    1.028
_refine_ls_restrained_S_all       1.028
_refine_ls_shift/su_max           0.000
_refine_ls_shift/su_mean          0.000
 
loop_
 _atom_site_label
 _atom_site_type_symbol
 _atom_site_fract_x
 _atom_site_fract_y
 _atom_site_fract_z
 _atom_site_U_iso_or_equiv
 _atom_site_adp_type
 _atom_site_occupancy
 _atom_site_site_symmetry_order  
 _atom_site_calc_flag
 _atom_site_refinement_flags_posn
 _atom_site_refinement_flags_adp
 _atom_site_refinement_flags_occupancy
 _atom_site_disorder_assembly
 _atom_site_disorder_group
O1 O 0.4866(3) 0.44198(5) 0.86896(9) 0.0236(3) Uani 1 1 d . . . . .
H1 H -0.026(7) 0.2967(12) 0.937(2) 0.054(7) Uiso 1 1 d . . . . .
N1 N 0.2735(4) 0.56720(7) 0.88237(12) 0.0185(3) Uani 1 1 d . . . . .
O2 O -0.0194(3) 0.29030(6) 0.86154(11) 0.0223(3) Uani 1 1 d . . . . .
H2 H -0.035(6) 0.2395(15) 0.8450(19) 0.057(6) Uiso 1 1 d . . . . .
N2 N 0.1000(4) 0.63956(6) 0.71301(11) 0.0179(3) Uani 1 1 d . . . . .
O003 O 0.1910(3) 0.58009(6) 0.53426(9) 0.0223(3) Uani 1 1 d . . . . .
H3 H 0.601(9) 0.3113(16) 0.599(3) 0.085(10) Uiso 1 1 d . . . . .
O3 O 0.4039(4) 0.31924(6) 0.63454(10) 0.0249(3) Uani 1 1 d . . . . .
N3 N 0.3251(3) 0.50624(6) 0.69633(11) 0.0182(3) Uani 1 1 d . . . . .
O004 O 0.0476(3) 0.69150(6) 0.89900(10) 0.0236(3) Uani 1 1 d . . . . .
H4 H 0.248(9) 0.2781(16) 0.637(2) 0.088(9) Uiso 1 1 d . . . . .
C009 C 0.2053(4) 0.57564(8) 0.64789(13) 0.0162(3) Uani 1 1 d . . . . .
H5 H 0.317(5) 0.5637(10) 0.9599(19) 0.033(5) Uiso 1 1 d . . . . .
C00A C 0.1355(4) 0.63500(7) 0.83118(13) 0.0162(3) Uani 1 1 d . . . . .
C00B C 0.3654(4) 0.50225(7) 0.81505(13) 0.0167(3) Uani 1 1 d . . . . .
Li0C Li 0.4767(8) 0.33874(14) 0.8070(2) 0.0258(6) Uani 1 1 d . . . . .
Li0D Li 0.6897(8) 0.57277(15) 0.4426(2) 0.0277(6) Uani 1 1 d . . . . .
 
loop_
 _atom_site_aniso_label
 _atom_site_aniso_U_11
 _atom_site_aniso_U_22
 _atom_site_aniso_U_33
 _atom_site_aniso_U_23
 _atom_site_aniso_U_13
 _atom_site_aniso_U_12
O1 0.0339(7) 0.0133(5) 0.0233(6) 0.0003(4) -0.0065(5) 0.0054(4)
N1 0.0292(7) 0.0143(6) 0.0118(6) -0.0001(5) -0.0022(5) 0.0037(5)
O2 0.0324(7) 0.0172(5) 0.0173(6) -0.0030(4) 0.0000(5) -0.0003(4)
N2 0.0229(7) 0.0159(6) 0.0148(6) 0.0008(5) -0.0002(5) 0.0023(5)
O003 0.0245(6) 0.0292(6) 0.0131(5) -0.0013(4) 0.0008(4) 0.0002(4)
O3 0.0287(7) 0.0221(6) 0.0241(6) -0.0028(5) 0.0016(5) -0.0009(5)
N3 0.0213(7) 0.0152(6) 0.0180(7) -0.0025(5) -0.0012(5) 0.0018(5)
O004 0.0362(7) 0.0167(5) 0.0180(6) -0.0034(4) 0.0008(5) 0.0071(4)
C009 0.0130(7) 0.0198(7) 0.0158(7) -0.0018(6) -0.0007(5) -0.0017(5)
C00A 0.0173(7) 0.0135(6) 0.0178(8) -0.0005(5) 0.0006(6) -0.0003(5)
C00B 0.0174(7) 0.0140(6) 0.0187(8) -0.0011(5) -0.0022(6) -0.0001(5)
Li0C 0.0332(16) 0.0201(12) 0.0240(15) -0.0032(10) -0.0018(12) -0.0007(11)
Li0D 0.0310(15) 0.0320(14) 0.0203(14) -0.0033(11) 0.0021(11) -0.0069(11)
 
_geom_special_details
;
 All esds (except the esd in the dihedral angle between two l.s. planes)
 are estimated using the full covariance matrix.  The cell esds are taken
 into account individually in the estimation of esds in distances, angles
 and torsion angles; correlations between esds in cell parameters are only
 used when they are defined by crystal symmetry.  An approximate (isotropic)
 treatment of cell esds is used for estimating esds involving l.s. planes.
;
 
loop_
 _geom_bond_atom_site_label_1
 _geom_bond_atom_site_label_2
 _geom_bond_distance
 _geom_bond_site_symmetry_2
 _geom_bond_publ_flag
O1 C00B 1.2541(17) . ?
O1 Li0C 1.884(3) . ?
N1 C00A 1.3655(19) . ?
N1 C00B 1.3740(19) . ?
N1 H5 0.88(2) . ?
O2 Li0C 1.988(3) . ?
O2 Li0C 1.993(3) 1_455 ?
O2 H1 0.85(2) . ?
O2 H2 0.88(3) . ?
N2 C00A 1.327(2) . ?
N2 C009 1.3581(18) . ?
O003 C009 1.2723(19) . ?
O003 Li0D 1.984(3) 1_455 ?
O003 Li0D 2.005(3) . ?
O003 Li0D 2.638(3) 3_666 ?
O3 Li0C 1.967(3) . ?
O3 Li0D 2.048(3) 3_666 ?
O3 H3 0.79(3) . ?
O3 H4 0.88(3) . ?
N3 C00B 1.333(2) . ?
N3 C009 1.3569(19) . ?
N3 Li0D 2.051(3) 3_666 ?
O004 C00A 1.2617(17) . ?
C009 Li0D 2.740(3) 3_666 ?
Li0C O2 1.994(3) 1_655 ?
Li0C Li0D 3.210(4) 3_666 ?
Li0C Li0C 3.4142(18) 1_455 ?
Li0C Li0C 3.4142(18) 1_655 ?
Li0C H4 2.29(3) . ?
Li0D O003 1.984(3) 1_655 ?
Li0D O3 2.048(3) 3_666 ?
Li0D N3 2.051(3) 3_666 ?
Li0D O003 2.639(3) 3_666 ?
Li0D C009 2.740(3) 3_666 ?
Li0D Li0D 3.079(5) 3_666 ?
Li0D Li0C 3.210(4) 3_666 ?
Li0D Li0D 3.4142(18) 1_655 ?
Li0D Li0D 3.4142(18) 1_455 ?
Li0D Li0D 3.486(6) 3_766 ?
 
loop_
 _geom_angle_atom_site_label_1
 _geom_angle_atom_site_label_2
 _geom_angle_atom_site_label_3
 _geom_angle
 _geom_angle_site_symmetry_1
 _geom_angle_site_symmetry_3
 _geom_angle_publ_flag
C00B O1 Li0C 125.32(13) . . ?
C00A N1 C00B 121.81(14) . . ?
C00A N1 H5 121.4(11) . . ?
C00B N1 H5 116.7(11) . . ?
Li0C O2 Li0C 118.10(14) . 1_455 ?
Li0C O2 H1 106.8(16) . . ?
Li0C O2 H1 102.3(16) 1_455 . ?
Li0C O2 H2 112.9(15) . . ?
Li0C O2 H2 106.8(14) 1_455 . ?
H1 O2 H2 109.3(19) . . ?
C00A N2 C009 117.78(12) . . ?
C009 O003 Li0D 122.04(12) . 1_455 ?
C009 O003 Li0D 119.16(13) . . ?
Li0D O003 Li0D 117.68(15) 1_455 . ?
C009 O003 Li0D 80.81(9) . 3_666 ?
Li0D O003 Li0D 96.87(10) 1_455 3_666 ?
Li0D O003 Li0D 81.85(10) . 3_666 ?
Li0C O3 Li0D 106.14(12) . 3_666 ?
Li0C O3 H3 115(2) . . ?
Li0D O3 H3 94(2) 3_666 . ?
Li0C O3 H4 99.8(18) . . ?
Li0D O3 H4 129.4(18) 3_666 . ?
H3 O3 H4 113(3) . . ?
C00B N3 C009 117.82(12) . . ?
C00B N3 Li0D 136.11(12) . 3_666 ?
C009 N3 Li0D 105.19(13) . 3_666 ?
O003 C009 N3 117.14(12) . . ?
O003 C009 N2 118.77(12) . . ?
N3 C009 N2 124.09(13) . . ?
O003 C009 Li0D 71.91(10) . 3_666 ?
N3 C009 Li0D 46.26(10) . 3_666 ?
N2 C009 Li0D 165.81(11) . 3_666 ?
O004 C00A N2 122.33(13) . . ?
O004 C00A N1 118.22(14) . . ?
N2 C00A N1 119.45(12) . . ?
O1 C00B N3 123.19(13) . . ?
O1 C00B N1 117.91(14) . . ?
N3 C00B N1 118.90(12) . . ?
O1 Li0C O3 121.19(14) . . ?
O1 Li0C O2 106.38(14) . . ?
O3 Li0C O2 97.83(13) . . ?
O1 Li0C O2 105.12(13) . 1_655 ?
O3 Li0C O2 108.98(14) . 1_655 ?
O2 Li0C O2 118.10(14) . 1_655 ?
O1 Li0C Li0D 83.46(11) . 3_666 ?
O3 Li0C Li0D 37.80(8) . 3_666 ?
O2 Li0C Li0D 108.69(12) . 3_666 ?
O2 Li0C Li0D 126.77(13) 1_655 3_666 ?
O1 Li0C Li0C 90.68(9) . 1_455 ?
O3 Li0C Li0C 83.65(9) . 1_455 ?
O2 Li0C Li0C 31.00(8) . 1_455 ?
O2 Li0C Li0C 149.10(8) 1_655 1_455 ?
Li0D Li0C Li0C 80.62(7) 3_666 1_455 ?
O1 Li0C Li0C 89.32(9) . 1_655 ?
O3 Li0C Li0C 96.35(9) . 1_655 ?
O2 Li0C Li0C 149.00(8) . 1_655 ?
O2 Li0C Li0C 30.90(8) 1_655 1_655 ?
Li0D Li0C Li0C 99.38(7) 3_666 1_655 ?
Li0C Li0C Li0C 180.0 1_455 1_655 ?
O1 Li0C H4 136.7(7) . . ?
O3 Li0C H4 22.2(7) . . ?
O2 Li0C H4 77.7(8) . . ?
O2 Li0C H4 110.5(7) 1_655 . ?
Li0D Li0C H4 55.7(7) 3_666 . ?
Li0C Li0C H4 70.9(8) 1_455 . ?
Li0C Li0C H4 109.1(8) 1_655 . ?
O003 Li0D O003 117.68(15) 1_655 . ?
O003 Li0D O3 106.78(13) 1_655 3_666 ?
O003 Li0D O3 91.81(12) . 3_666 ?
O003 Li0D N3 116.24(14) 1_655 3_666 ?
O003 Li0D N3 114.61(14) . 3_666 ?
O3 Li0D N3 105.36(14) 3_666 3_666 ?
O003 Li0D O003 83.13(10) 1_655 3_666 ?
O003 Li0D O003 98.15(10) . 3_666 ?
O3 Li0D O003 160.75(14) 3_666 3_666 ?
N3 Li0D O003 55.48(8) 3_666 3_666 ?
O003 Li0D C009 97.53(11) 1_655 3_666 ?
O003 Li0D C009 111.27(11) . 3_666 ?
O3 Li0D C009 133.47(14) 3_666 3_666 ?
N3 Li0D C009 28.55(6) 3_666 3_666 ?
O003 Li0D C009 27.28(5) 3_666 3_666 ?
O003 Li0D Li0D 101.54(15) 1_655 3_666 ?
O003 Li0D Li0D 58.01(10) . 3_666 ?
O3 Li0D Li0D 146.04(18) 3_666 3_666 ?
N3 Li0D Li0D 77.62(12) 3_666 3_666 ?
O003 Li0D Li0D 40.14(8) 3_666 3_666 ?
C009 Li0D Li0D 58.31(10) 3_666 3_666 ?
O003 Li0D Li0C 123.94(13) 1_655 3_666 ?
O003 Li0D Li0C 105.97(13) . 3_666 ?
O3 Li0D Li0C 36.06(7) 3_666 3_666 ?
N3 Li0D Li0C 69.31(11) 3_666 3_666 ?
O003 Li0D Li0C 124.77(11) 3_666 3_666 ?
C009 Li0D Li0C 97.59(10) 3_666 3_666 ?
Li0D Li0D Li0C 131.90(15) 3_666 3_666 ?
O003 Li0D Li0D 31.34(9) 1_655 1_655 ?
O003 Li0D Li0D 149.02(9) . 1_655 ?
O3 Li0D Li0D 98.58(9) 3_666 1_655 ?
N3 Li0D Li0D 90.71(8) 3_666 1_655 ?
O003 Li0D Li0D 81.21(6) 3_666 1_655 ?
C009 Li0D Li0D 82.14(7) 3_666 1_655 ?
Li0D Li0D Li0D 115.30(11) 3_666 1_655 ?
Li0C Li0D Li0D 99.38(7) 3_666 1_655 ?
O003 Li0D Li0D 148.66(9) 1_655 1_455 ?
O003 Li0D Li0D 30.98(9) . 1_455 ?
O3 Li0D Li0D 81.42(9) 3_666 1_455 ?
N3 Li0D Li0D 89.29(8) 3_666 1_455 ?
O003 Li0D Li0D 98.79(6) 3_666 1_455 ?
C009 Li0D Li0D 97.86(6) 3_666 1_455 ?
Li0D Li0D Li0D 64.70(11) 3_666 1_455 ?
Li0C Li0D Li0D 80.62(7) 3_666 1_455 ?
Li0D Li0D Li0D 180.0 1_655 1_455 ?
O003 Li0D Li0D 48.71(8) 1_655 3_766 ?
O003 Li0D Li0D 111.82(14) . 3_766 ?
O3 Li0D Li0D 151.50(16) 3_666 3_766 ?
N3 Li0D Li0D 79.79(12) 3_666 3_766 ?
O003 Li0D Li0D 34.41(6) 3_666 3_766 ?
C009 Li0D Li0D 53.27(8) 3_666 3_766 ?
Li0D Li0D Li0D 62.30(11) 3_666 3_766 ?
Li0C Li0D Li0D 138.55(14) 3_666 3_766 ?
Li0D Li0D Li0D 53.00(9) 1_655 3_766 ?
Li0D Li0D Li0D 127.00(9) 1_455 3_766 ?
 
_refine_diff_density_max    0.190
_refine_diff_density_min   -0.250
_refine_diff_density_rms    0.053

_shelx_res_file
;

    1L_3_0m_a.res created by SHELXL-2014/7


TITL 1L_3_0m_a.res in P2(1)/c
REM Old TITL 1L_3_0m_a.res in P2(1)/c
REM SHELXT solution in P2(1)/c
REM R1 0.122,  Rweak 0.029,  Alpha 0.028,  Orientation as input
REM Formula found by SHELXT:  C6 Li2 N3 O2
CELL  0.71073   3.4142  16.9743  11.1757   90.000   90.924   90.000
ZERR    4.000   0.0018   0.0111   0.0075    0.000    0.021    0.000
LATT  1
SYMM -X, 1/2+Y, 1/2-Z
SFAC C H LI N O
UNIT 12 20 8 12 20
ACTA
TEMP -184.910
L.S. 10
BOND $H
LIST 4
FMAP 2
PLAN 20
WGHT    0.047800
FVAR       1.09412
O1    5    0.486551    0.441976    0.868957    11.00000    0.03387    0.01328 =
         0.02330    0.00034   -0.00652    0.00537
H1    2   -0.026341    0.296688    0.936509    11.00000    0.05397
N1    4    0.273458    0.567204    0.882372    11.00000    0.02921    0.01429 =
         0.01181   -0.00014   -0.00217    0.00374
O2    5   -0.019427    0.290300    0.861542    11.00000    0.03236    0.01725 =
         0.01730   -0.00302   -0.00004   -0.00032
H2    2   -0.035056    0.239515    0.845033    11.00000    0.05680
N2    4    0.099993    0.639562    0.713011    11.00000    0.02289    0.01592 =
         0.01475    0.00082   -0.00017    0.00234
O003  5    0.190990    0.580087    0.534259    11.00000    0.02448    0.02922 =
         0.01313   -0.00127    0.00078    0.00022
H3    2    0.600572    0.311332    0.599492    11.00000    0.08509
O3    5    0.403874    0.319242    0.634544    11.00000    0.02866    0.02211 =
         0.02407   -0.00282    0.00158   -0.00088
N3    4    0.325064    0.506240    0.696333    11.00000    0.02134    0.01517 =
         0.01805   -0.00250   -0.00116    0.00184
O004  5    0.047608    0.691504    0.898996    11.00000    0.03623    0.01674 =
         0.01797   -0.00341    0.00080    0.00712
H4    2    0.248234    0.278068    0.636978    11.00000    0.08801
C009  1    0.205263    0.575642    0.647887    11.00000    0.01303    0.01979 =
         0.01576   -0.00177   -0.00075   -0.00171
H5    2    0.316943    0.563740    0.959927    11.00000    0.03263
C00A  1    0.135516    0.634996    0.831182    11.00000    0.01733    0.01352 =
         0.01780   -0.00046    0.00063   -0.00034
C00B  1    0.365387    0.502251    0.815051    11.00000    0.01745    0.01395 =
         0.01868   -0.00109   -0.00218   -0.00009
LI0C  3    0.476690    0.338740    0.806957    11.00000    0.03322    0.02013 =
         0.02405   -0.00318   -0.00179   -0.00073
LI0D  3    0.689708    0.572771    0.442563    11.00000    0.03100    0.03201 =
         0.02028   -0.00328    0.00214   -0.00693
HKLF 4

REM  1L_3_0m_a.res in P2(1)/c
REM R1 =  0.0403 for    1135 Fo > 4sig(Fo)  and  0.0587 for all    1467 data
REM    138 parameters refined using      0 restraints

END

WGHT      0.0478      0.0000

REM Highest difference peak  0.190,  deepest hole -0.250,  1-sigma level  0.053
Q1    1   0.0090  0.6706  0.6740  11.00000  0.05    0.19
Q2    1  -0.0269  0.5174  0.9041  11.00000  0.05    0.17
Q3    1   0.2002  0.6875  0.9856  11.00000  0.05    0.16
Q4    1   0.0000  0.5000  1.0000  10.50000  0.05    0.15
Q5    1   0.7394  0.5490  0.7942  11.00000  0.05    0.15
Q6    1   0.3296  0.5402  0.6795  11.00000  0.05    0.15
Q7    1  -0.0021  0.6431  0.9782  11.00000  0.05    0.15
Q8    1   0.3539  0.4673  0.6654  11.00000  0.05    0.14
Q9    1   0.3922  0.3871  0.8544  11.00000  0.05    0.14
Q10   1   0.7524  0.4913  0.6770  11.00000  0.05    0.14
Q11   1  -0.1160  0.5447  0.7233  11.00000  0.05    0.13
Q12   1   0.5631  0.4886  0.6401  11.00000  0.05    0.13
Q13   1   0.1925  0.3832  0.9982  11.00000  0.05    0.13
Q14   1   0.3304  0.7336  0.9211  11.00000  0.05    0.13
Q15   1   0.4953  0.5050  0.4521  11.00000  0.05    0.13
Q16   1  -0.0092  0.4730  0.7603  11.00000  0.05    0.12
Q17   1  -0.2734  0.6072  0.8400  11.00000  0.05    0.12
Q18   1   0.8172  0.4296  0.7383  11.00000  0.05    0.12
Q19   1   0.5132  0.6866  0.7136  11.00000  0.05    0.12
Q20   1  -0.1059  0.5798  0.7486  11.00000  0.05    0.11
;
_shelx_res_checksum   48337

_shelx_hkl_file
;
   1   0   0  178.18    8.90
   1   0   0  192.18   20.40
   1   0   0  205.08   21.30
  -1   0   0  192.58    8.80
  -2   0   0   89.39    7.40
   2   0   0   91.69    6.10
   2   0   0  117.19   28.70
   2   0   0   98.39   26.90
   2   0   0  105.89    8.70
   3   0   0    8.20   12.30
   3   0   0  -30.30   22.20
   3   0   0    5.90    1.80
   3   0   0    9.10    3.90
  -3   0   0    7.60    3.00
   4   0   0   82.79   43.50
   1  -1   0 1734.93   53.69
   1  -1   0 1911.71   77.19
  -1  -1   0 1862.11   55.79
  -1   1   0 1954.90   75.09
   1   1   0 1785.02   53.89
   1   1   0 1829.92   56.49
   1   1   0 1902.81   84.09
   1   1   0 1803.32   84.99
   2  -1   0 2325.77   73.69
  -2  -1   0 2470.65   74.99
   2  -1   0 2391.86  115.19
   2  -1   0 2352.66   69.09
   2   1   0 2429.76  126.89
  -2   1   0 2376.56   72.49
   2   1   0 2404.56   71.19
   2   1   0 2393.06   76.39
   2   1   0 2381.56  123.19
   3  -1   0    3.20    1.50
   3  -1   0   10.60   21.90
   3  -1   0   -5.50    8.60
  -3  -1   0   -0.50    1.30
   3  -1   0    2.60    1.00
   3  -1   0   -0.90    2.60
   3   1   0    5.40    2.00
   3   1   0   -6.20   12.00
  -3   1   0    3.10    2.30
   3   1   0   -6.40   20.50
   3   1   0    3.10    3.30
   1  -2   0 4496.95  151.98
  -1  -2   0 4649.94  171.58
  -1   2   0 4736.43  150.18
   1   2   0 4554.14  173.28
  -2  -2   0 2150.38   69.09
   2  -2   0 2153.08   66.29
   2  -2   0 2211.08  103.09
   2  -2   0 2085.89   62.49
   2  -2   0 2167.28  106.69
  -2   2   0 2065.99   64.89
   2   2   0 2241.98  120.49
   2   2   0 2168.78   65.89
   2   2   0 2110.39   70.99
   2   2   0 2153.78  123.79
  -3  -2   0   31.50    6.70
   3  -2   0    7.20   12.20
   3  -2   0   23.00    5.10
   3   2   0   29.10    8.50
   3   2   0    4.60   12.60
   3   2   0   51.69   28.00
  -3   2   0   16.00    4.10
   4   2   0  209.98   56.19
   0  -3   0    0.20    0.70
   0  -3   0   -0.20    0.80
   0  -3   0   -0.30    0.70
   0  -3   0    0.70    3.00
   0   3   0   -0.10    1.10
   1  -3   0 3972.20  139.29
  -1  -3   0 4133.59  162.28
   1   3   0 3764.72  162.48
  -1   3   0 4243.38  136.49
  -2  -3   0  293.47   16.50
   2  -3   0  262.87   32.80
   2  -3   0  275.47   13.10
   2  -3   0  290.27   11.30
   2   3   0  272.07   14.90
   2   3   0  260.67   40.80
   2   3   0  258.67   39.50
  -2   3   0  264.37   12.40
   2   3   0  255.47   16.90
   3  -3   0  124.79   10.10
   3  -3   0  149.09   32.50
   3  -3   0  142.39   36.10
  -3  -3   0  130.99   12.20
   3   3   0   94.29   33.80
  -3   3   0  118.89    9.10
   3   3   0  126.19   13.50
   3   3   0  132.49   45.70
   3   3   0  143.29   10.30
   4  -3   0   74.29    9.40
  -4  -3   0   73.79   11.50
   4   3   0   51.99    7.70
  -4   3   0   87.39    8.30
   4   3   0   93.69   14.80
   4   3   0  -13.60   60.39
   0  -4   0   50.29   15.20
   0  -4   0   19.60    3.70
   0  -4   0   19.20    3.90
   0  -4   0   20.90    3.00
   0   4   0   16.40    3.40
  -1  -4   0  695.63   27.10
  -1  -4   0  671.43   55.49
  -1  -4   0  715.23   26.00
   1  -4   0  607.64   44.60
   1  -4   0  642.54   21.50
   1  -4   0  706.93   23.30
   1   4   0  636.74   25.10
  -1   4   0  633.84   21.10
  -1   4   0  639.74   39.70
   1   4   0  654.13   27.50
  -1   4   0  671.63   23.60
   1   4   0  706.73   60.19
  -2  -4   0   32.60    6.60
   2  -4   0   37.60   14.30
   2  -4   0   22.50    3.60
   2  -4   0   27.40    3.10
   2   4   0   21.90   14.90
   2   4   0   37.90   20.10
  -2   4   0   28.80    3.40
   2   4   0   26.50    6.40
   2   4   0   23.40    4.80
  -2   4   0   44.10   14.30
   3  -4   0  604.94   54.99
   3  -4   0  646.34   27.00
   3  -4   0  774.42   67.09
   3   4   0  633.54   77.99
   3   4   0  559.04   73.19
  -3   4   0  678.53   25.60
   3   4   0  625.74   34.40
   3   4   0  682.33   28.60
  -4  -4   0    7.20    4.70
  -4   4   0    7.80    3.50
   4   4   0   18.00   68.29
   4   4   0   -1.00    5.80
   0  -5   0    3.60    3.80
   0  -5   0    0.80    2.10
   0  -5   0    2.30    1.80
   0  -5   0    0.30    1.10
   0   5   0   -0.10    0.90
   0   5   0    0.60    2.90
   1  -5   0  551.64   20.60
   1  -5   0  544.65   53.69
   1  -5   0  483.65   18.40
  -1  -5   0  585.44   23.30
  -1  -5   0  492.15   50.89
  -1  -5   0  536.45   24.10
  -1   5   0  541.35   39.90
   1   5   0  520.05   24.50
   1   5   0  575.24   57.49
   1   5   0  517.55   23.20
  -1   5   0  531.85   21.00
  -1   5   0  525.45   18.20
   2  -5   0  337.67   36.10
   2  -5   0  348.47   14.10
   2  -5   0  327.27   14.10
  -2  -5   0  348.07   20.30
   2   5   0  290.17   49.20
   2   5   0  308.17   20.50
   2   5   0  330.57   17.90
  -2   5   0  330.27   30.20
  -2   5   0  341.57   13.70
   3  -5   0  206.38   35.80
   3  -5   0  157.08   26.10
   3  -5   0  161.38   10.70
  -3  -5   0  175.38   15.20
   3   5   0  198.18   13.80
   3   5   0  194.58   58.09
   3   5   0  162.78   16.60
   3   5   0   92.39   36.70
  -3   5   0  159.68    9.50
  -4  -5   0   50.49   10.70
   4  -5   0   40.30    6.60
   4   5   0   62.89   18.70
   4   5   0   37.80    7.20
   4   5   0  -35.90   56.89
  -4   5   0   43.70    5.10
   0  -6   0  240.88   11.70
   0  -6   0  234.58   13.60
   0  -6   0  249.97   32.60
   1  -6   0  127.09   10.20
   1  -6   0  144.69   21.70
  -1  -6   0  142.59   10.50
  -1  -6   0  147.29   27.40
  -1  -6   0  135.19   10.90
   1  -6   0  122.59    7.20
  -1   6   0  133.99    9.20
   1   6   0  110.29   33.70
   1   6   0  111.99    9.50
  -1   6   0  125.79    6.90
   1   6   0  112.79   10.60
  -1   6   0  105.29   19.60
   2  -6   0  737.83   53.89
   2  -6   0  777.82   26.70
   2  -6   0  779.42   27.40
  -2  -6   0  769.22   35.00
   2   6   0  746.23   36.40
   2   6   0  751.62   32.30
  -2   6   0  784.22   25.80
   2   6   0  775.92   84.19
  -2   6   0  776.82   49.40
   3  -6   0  296.57   15.30
  -3  -6   0  347.67   23.10
   3  -6   0  364.36   33.30
   3  -6   0  416.36   44.30
   3   6   0  305.97   77.29
  -3   6   0  314.67   13.90
   3   6   0  326.57   24.80
   3   6   0  343.07   20.20
   3   6   0  361.56   83.79
   4  -6   0  158.38   10.90
  -4  -6   0  234.08   23.40
  -4   6   0  188.98    7.00
   4   6   0  184.28   14.90
  -4   6   0  165.48    6.70
   4   6   0  205.28   21.30
   0  -7   0    0.30    1.40
   0  -7   0   -2.40    3.40
   0  -7   0    1.80    1.60
   0  -7   0    0.50    1.80
   0   7   0    2.60    1.90
   0   7   0    4.30    7.50
  -1  -7   0  119.99   10.90
  -1  -7   0  152.18   11.40
   1  -7   0  138.89   30.70
   1  -7   0  113.59    8.70
  -1  -7   0  137.69   26.90
   1  -7   0  106.79    7.10
  -1   7   0  122.69   11.30
  -1   7   0  112.29    7.00
   1   7   0   70.09   24.40
   1   7   0  102.19    9.50
  -1   7   0  109.89   21.40
   1   7   0  123.29   11.40
   2  -7   0   34.30    3.90
  -2  -7   0   36.70    7.80
   2  -7   0   20.50   17.20
   2  -7   0   30.00    4.70
  -2   7   0   40.70   15.30
   2   7   0   24.90    7.00
   2   7   0   16.60   17.80
  -2   7   0   28.50    3.30
   2   7   0   39.50    7.50
   3  -7   0   15.00    2.30
   3  -7   0   16.50    3.50
  -3  -7   0   22.20    7.10
   3  -7   0   28.60    9.50
   3   7   0    5.20   17.20
  -3   7   0   21.30    3.10
   3   7   0   19.30    5.80
   3   7   0   18.50    7.60
  -4  -7   0   88.79   14.30
   4   7   0  155.08   63.89
   4   7   0   90.19   17.60
   4   7   0   81.19   12.00
   0  -8   0 3905.41  178.38
   0  -8   0 3573.24  118.49
   0   8   0 4210.58  119.49
  -1  -8   0   77.69    8.60
   1  -8   0   69.59    7.30
  -1  -8   0   75.29    8.80
   1  -8   0   68.69    6.00
   1  -8   0   83.59   24.60
  -1  -8   0   98.79   31.30
   1   8   0   72.39   11.00
   1   8   0   84.59   30.30
   1   8   0   76.69    8.50
  -1   8   0   70.39    7.60
  -1   8   0   87.99   25.70
   2  -8   0  105.09    7.50
  -2  -8   0  125.99   12.10
  -2  -8   0  122.79   41.70
  -2  -8   0  140.29   13.60
   2  -8   0  119.09   22.50
   2  -8   0  130.19    9.40
   2   8   0  106.89   11.20
  -2   8   0  110.09   21.50
  -2   8   0  128.59    7.20
   2   8   0  113.29   41.30
   2   8   0  129.49   14.40
   3  -8   0   34.70    4.00
   3  -8   0   36.60   11.50
  -3  -8   0   40.30    9.60
   3  -8   0   37.60    4.40
   3   8   0   87.69   26.30
   3   8   0   51.39    9.50
  -3   8   0   36.00    3.20
   3   8   0   37.70   10.50
  -4  -8   0  326.27   25.80
   4   8   0  174.58   78.89
   4   8   0  309.87   21.70
   0  -9   0   -1.90    1.30
   0  -9   0   13.20    7.00
   0  -9   0   -0.30    1.20
   0  -9   0    2.50    2.30
   0   9   0   -0.90    1.60
   0   9   0   -5.80    7.20
   1  -9   0   33.80    6.40
   1  -9   0   38.10    4.70
  -1  -9   0   42.70    7.60
  -1  -9   0   46.50    8.80
   1  -9   0   37.00   17.10
  -1  -9   0   66.19   26.60
   1   9   0   56.29   29.10
  -1   9   0   29.40   18.20
   1   9   0   31.20    7.60
  -1   9   0   39.50    7.00
   1   9   0   35.70    7.30
   2  -9   0  160.28    9.60
   2  -9   0  146.69   10.90
  -2  -9   0  169.78   15.80
  -2  -9   0  146.49   13.70
   2  -9   0  133.49   24.90
   2   9   0  143.99   15.80
  -2   9   0  162.58   25.10
   2   9   0  151.58   14.00
  -2   9   0  149.39   11.90
  -2   9   0  153.58    8.60
   2   9   0  155.48   56.19
   3  -9   0  209.88   10.90
  -3  -9   0  241.68   20.60
   3   9   0  182.08   56.29
   3   9   0  202.88   20.70
   3   9   0  245.38   18.80
   3   9   0  122.69   51.29
  -4  -9   0   13.20    6.10
  -4  -9   0   32.60    8.90
   4   9   0   15.20    7.10
   0 -10   0  317.17   19.90
   0 -10   0  317.17   19.60
   0 -10   0  358.46   49.00
   0 -10   0  312.07   17.10
   0  10   0  305.57   52.09
   0  10   0  327.07   19.80
   1 -10   0  263.97   40.10
  -1 -10   0  266.47   18.30
  -1 -10   0  292.77   47.40
   1 -10   0  243.88   15.70
   1 -10   0  256.87   14.10
   1 -10   0  260.87   16.60
  -1 -10   0  255.47   18.80
   1  10   0  245.78   17.70
  -1  10   0  278.77   17.60
   1  10   0  227.38   49.20
  -1  10   0  207.58   41.00
   2 -10   0   -2.90    1.30
   2 -10   0   -0.50    1.90
  -2 -10   0    0.60    2.20
  -2 -10   0  -18.10   11.90
  -2 -10   0    0.40    2.90
  -2  10   0   16.00   12.90
  -2  10   0   -3.50    1.90
   2  10   0   -1.20    3.10
   2  10   0   25.40   30.10
   2  10   0   -1.60    2.80
   3 -10   0  525.45   22.10
  -3 -10   0  555.64   34.10
   3  10   0  491.25  107.19
   3  10   0  529.55   31.00
   3  10   0  515.35   36.00
   3  10   0  528.85   95.79
   0 -11   0    9.90    7.70
   0 -11   0   -1.00    1.80
   0 -11   0   -3.70    1.70
   0 -11   0   -0.30    2.20
   0  11   0    5.20    3.40
   0  11   0   -1.40   11.70
   1 -11   0  104.79    8.80
  -1 -11   0  102.29   11.70
  -1 -11   0  110.49   12.50
  -1 -11   0   91.09   33.30
   1 -11   0  109.29   10.90
   1 -11   0  139.89   38.40
   1 -11   0   90.49    9.60
  -1 -11   0  103.89   10.30
   1  11   0  127.49   51.89
  -1  11   0  113.09   38.70
   1  11   0  100.19   11.80
  -1  11   0  118.19   11.70
  -2 -11   0   48.00   10.00
   2 -11   0   81.99    9.00
  -2 -11   0   75.69   14.90
   2 -11   0   76.99    7.00
  -2 -11   0   63.39   31.00
   2  11   0   64.29   11.80
   2  11   0   68.09   13.20
   2  11   0   90.49   40.80
  -2  11   0   88.29   25.50
  -2  11   0   70.09   10.50
   3 -11   0  220.08   13.40
  -3 -11   0  207.78   20.30
   3  11   0  229.98   20.10
   3  11   0  175.18   56.99
   0 -12   0  372.46   23.40
   0 -12   0  362.36   23.60
   0 -12   0  440.16   55.69
   0 -12   0  391.26   20.80
   0  12   0  337.67   58.99
   0  12   0  387.96   24.00
  -1 -12   0  981.90   43.90
  -1 -12   0  926.01   40.00
   1 -12   0  920.11   36.30
  -1 -12   0  998.60   45.50
   1 -12   0  918.81   40.20
  -1 -12   0  858.41   93.29
   1 -12   0  880.21   79.99
   1 -12   0 1007.20   41.50
  -1  12   0  895.71   86.39
   1  12   0  975.00   43.90
   1  12   0 1015.80  112.89
  -1  12   0  934.61   41.60
  -2 -12   0  615.04   34.40
   2 -12   0  660.63   30.30
   2 -12   0  606.04   25.90
   2 -12   0  544.75   27.20
  -2 -12   0  686.93   87.19
  -2 -12   0  704.93   38.30
   2 -12   0  638.94   56.19
   2  12   0  704.93  105.09
  -2  12   0  644.04   61.29
   2  12   0  611.64   34.60
  -2  12   0  620.04   31.70
   3 -12   0    1.20    1.70
   3 -12   0    4.90    3.30
  -3 -12   0    7.90    5.10
   3 -12   0    3.40    4.10
  -3 -12   0   -3.40    3.60
   3  12   0   12.40   36.60
   3  12   0   -0.50    3.80
   3  12   0   27.00   28.30
   0 -13   0   -0.40    1.40
   0 -13   0    8.90    4.70
   0 -13   0    1.80    8.30
   0 -13   0    4.90    3.90
  -1 -13   0  184.08   17.10
  -1 -13   0  228.08   63.49
  -1 -13   0  205.48   18.70
   1 -13   0  189.88   15.80
  -1 -13   0  202.48   15.80
   1 -13   0  192.68   13.60
   1 -13   0  193.98   16.40
   1 -13   0  166.98   44.10
   1  13   0  188.08   60.19
  -1  13   0  197.18   17.10
   1  13   0  192.78   17.50
  -1  13   0  236.48   48.80
   2 -13   0  108.99    9.40
   2 -13   0   97.79   11.10
  -2 -13   0  138.19   16.30
  -2 -13   0  140.69   14.50
   2 -13   0  141.49   28.20
   2 -13   0  111.69   10.60
  -2 -13   0   97.19   15.20
   2  13   0   96.29   15.50
  -2  13   0  117.19   13.10
  -2  13   0  163.18   42.10
   2  13   0   95.69   37.80
   3 -13   0   66.39    9.50
  -3 -13   0   93.59   15.10
   3 -13   0   95.69   12.00
   3 -13   0   51.19    6.10
  -3 -13   0   57.79   12.40
   3  13   0   36.00   45.10
   3  13   0   83.39   15.10
   3  13   0  154.18   48.20
   0 -14   0 2500.35  165.18
   0 -14   0 2692.23   91.29
   0 -14   0 2528.65   90.49
   0 -14   0 2467.55   83.89
   0  14   0 2462.15   89.99
   0  14   0 2310.27  176.88
  -1 -14   0  131.99   15.30
  -1 -14   0  149.59   16.00
   1 -14   0  128.89   14.30
   1 -14   0  160.28   34.70
   1 -14   0  129.29   11.50
   1 -14   0  107.29   13.00
  -1 -14   0  131.39   13.00
  -1 -14   0  140.09   42.60
   1  14   0  111.69   19.40
   1  14   0  156.28   55.99
  -1  14   0  138.19   14.70
   2 -14   0  180.68   14.50
   2 -14   0  172.58   15.70
  -2 -14   0  168.58   17.80
  -2 -14   0  195.18   60.59
  -2 -14   0  217.18   21.30
   2 -14   0  182.28   13.40
  -2 -14   0  195.48   17.60
  -2  14   0  205.88   42.40
   2  14   0  180.48   18.90
  -2  14   0  178.88   16.90
  -3 -14   0    8.20    6.80
   3 -14   0   -1.80    3.40
   3 -14   0    1.70    3.20
  -3 -14   0   -5.90    3.70
   3 -14   0    2.40    2.40
   3  14   0   24.90   39.60
   3  14   0   -1.70    4.80
   0 -15   0    2.90    3.90
   0 -15   0  -13.10   11.90
   0 -15   0   -5.70    2.70
   0 -15   0   -1.90    2.70
   0  15   0  -26.40   16.20
  -1 -15   0  430.36   68.19
   1 -15   0  372.06   24.80
  -1 -15   0  397.56   28.00
   1 -15   0  358.86   21.60
  -1 -15   0  448.36   30.30
   1 -15   0  416.36   38.30
   1 -15   0  401.16   59.19
  -1 -15   0  400.06   25.00
  -1  15   0  419.66   27.70
   1  15   0  410.16   28.50
  -1  15   0  346.87   65.19
   1  15   0  291.37   77.29
   2 -15   0    1.80    2.10
  -2 -15   0   -5.10    3.70
  -2 -15   0    7.40   11.30
   2 -15   0   -3.40    2.80
   2 -15   0  -11.50   12.10
   2 -15   0    0.10    2.90
  -2 -15   0   -0.20    3.30
  -2 -15   0   -1.00    2.80
  -2  15   0   -3.80   16.20
  -2  15   0    4.10    3.90
   2  15   0   -0.20    4.30
   2  15   0   19.60   30.60
  -3 -15   0  -10.20    6.40
   3 -15   0   10.10    5.00
  -3 -15   0    4.80    7.60
   3 -15   0    7.40    4.70
   3 -15   0    4.80    2.50
   3  15   0   -0.70   56.69
   3  15   0   45.40   44.50
   3  15   0    2.20    5.60
   0 -16   0 1269.47   53.79
   0 -16   0 1469.45  126.29
   0 -16   0 1496.75   61.99
   0 -16   0 1377.96   60.59
   0  16   0 1316.57  140.99
   0  16   0 1364.46   60.89
   1 -16   0  131.99   12.50
   1 -16   0   70.89   30.40
  -1 -16   0  138.39   16.50
   1 -16   0  129.69   14.70
  -1 -16   0  150.18   17.30
  -1 -16   0  139.29   14.60
   1 -16   0  132.69   14.70
  -1 -16   0  230.98   45.30
   1  16   0  150.28   17.00
   1  16   0  132.59   62.79
  -1  16   0  118.29   15.20
  -1  16   0  129.09   48.80
   2 -16   0    0.50    3.10
  -2 -16   0   11.30    5.50
   2 -16   0    8.30    4.80
  -2 -16   0  -28.80   25.60
   2 -16   0   37.40   16.20
  -2 -16   0    8.80    5.20
   2 -16   0    0.00    3.70
  -2 -16   0    9.30    6.50
   2  16   0   12.60    6.40
  -2  16   0   18.70    6.70
  -2  16   0   -9.70   23.80
  -3 -16   0   16.40   12.70
   3 -16   0   18.90    7.00
   3 -16   0   16.90    4.40
  -3 -16   0   18.90    9.30
   3 -16   0   17.80    5.50
   3  16   0   16.70   64.29
   0 -17   0    8.60    5.70
   0 -17   0   -0.10   18.50
   0  17   0    5.10    4.90
   1 -17   0  525.55   32.50
   1 -17   0  438.36   25.80
  -1 -17   0  505.95   34.10
  -1 -17   0  462.65   33.10
  -1 -17   0  478.15   83.79
  -1 -17   0  512.95   30.30
   1 -17   0  383.56   64.39
   1 -17   0  429.66   28.90
   1  17   0  517.85   99.89
   1  17   0  471.85   33.10
  -1  17   0  420.66   80.39
  -1  17   0  481.65   32.10
   2 -17   0  158.28   15.10
  -2 -17   0  132.89   21.40
   2 -17   0  167.38   16.60
  -2 -17   0  174.68   18.20
   2 -17   0  229.48   39.10
   2 -17   0  152.98   13.00
  -2 -17   0  156.78   22.30
   2  17   0  172.78   76.79
  -2  17   0  161.38   17.90
  -2  17   0  177.28   54.49
   2  17   0  121.99   19.50
   0 -18   0   19.80   20.20
   0 -18   0   21.60    7.50
   0 -18   0   28.00    8.50
   0 -18   0   19.30    9.00
   0  18   0    2.80   34.70
   0  18   0   15.90    7.00
  -1 -18   0  719.73  104.39
  -1 -18   0  797.92   41.40
  -1 -18   0  715.73   44.10
  -1 -18   0  740.23   45.10
   1 -18   0  811.82   43.40
   1 -18   0  785.72   37.60
   1 -18   0  830.22   42.30
   1 -18   0  755.22   89.59
  -1  18   0  876.91  109.69
   1  18   0  751.32  125.49
   1  18   0  799.92   46.10
  -1  18   0  761.62   44.20
  -2 -18   0    8.10    6.90
   2 -18   0   10.50    6.20
   2 -18   0   15.80   16.90
  -2 -18   0    6.70    9.20
   2 -18   0   17.80    7.60
   2 -18   0    3.90    4.60
  -2 -18   0   17.80   12.50
  -2  18   0  -29.80   24.00
   2  18   0  -46.00   60.29
  -2  18   0   10.30    6.30
   0 -19   0   -4.90    5.30
   0 -19   0    1.40    4.50
   0 -19   0   24.50   15.70
   0 -19   0   -0.50    5.80
   0  19   0   -2.10   37.10
   0  19   0   -0.70    5.10
   1 -19   0   -1.50    4.30
   1 -19   0  -10.90    4.80
   1 -19   0   -3.20   19.50
  -1 -19   0   -6.90    6.60
   1 -19   0   -3.10    4.00
  -1 -19   0   51.89   23.60
  -1 -19   0    9.60    6.60
  -1 -19   0    7.10    4.80
   1  19   0    5.40    6.10
  -1  19   0   19.60   27.90
  -1  19   0    4.60    5.10
  -2 -19   0   34.50   11.20
   2 -19   0   65.39   14.40
  -2 -19   0   64.29   15.10
   2 -19   0   66.19   30.70
   2 -19   0   73.29   11.00
   2 -19   0   67.09   11.30
  -2 -19   0   86.29   16.50
   2  19   0  -35.00   67.49
  -2  19   0   42.40   45.70
  -2  19   0   85.49   15.30
   2  19   0   79.39   16.60
   0 -20   0   -1.60    6.20
   0 -20   0    7.30    4.80
   0 -20   0   -0.60    6.30
   0 -20   0   18.10   25.10
   0  20   0   -1.40    6.10
   0  20   0  -57.59   51.79
  -1 -20   0    1.60    7.70
   1 -20   0   -0.20    6.40
  -1 -20   0   -3.20    4.80
  -1 -20   0   53.69   38.10
   1 -20   0    2.00    5.20
  -1 -20   0    9.50    5.50
  -1  20   0    8.60    6.20
   1  20   0   13.20    7.60
  -1  20   0  -24.00   47.80
   1  20   0   25.20   63.19
   0 -21   0  -14.10   21.10
   0 -21   0   -4.50    3.60
   0 -21   0    8.00    7.80
   0  21   0   -3.90    6.00
   1 -21   0   -7.20    6.50
   1 -21   0    1.50    4.70
  -1 -21   0    1.40    7.20
  -1 -21   0   -4.40    5.30
   1 -21   0    2.80   23.80
  -1 -21   0  -39.70   34.10
   1  21   0  -12.60    5.10
  -1  21   0   34.50   14.10
   0  22   0   64.49   15.70
   3   0  -1  -12.80   10.80
   3   0  -1    3.40    2.90
  -3   0   1   -0.30    1.60
   3   0  -1   15.30   19.70
   2   0  -1   -3.20    4.50
   2   0  -1    3.30    8.00
  -1   0   1   -1.90    1.50
   1   0  -1   -0.90    3.00
   1   0  -1   -0.50    1.00
  -1   0   1   -0.10    0.80
   1   0   1   -0.20    0.30
   1   0   1   -0.30    4.50
  -1   0  -1    0.10    0.80
  -2   0  -1    1.70    1.70
   2   0   1    2.20    7.20
   2   0   1    0.10    0.70
   2   0   1   -9.50    8.90
   2   0   1    2.60    2.10
  -3   0  -1    1.00    2.20
   3   0   1   22.30   23.90
   3   0   1   -0.80    2.60
   4   1  -1  102.49   45.10
   3  -1  -1   19.70   16.50
   3   1  -1    7.50   20.60
   3   1  -1    3.60   11.90
   3   1  -1    4.80    3.60
   2  -1  -1 1055.69   36.90
   2  -1  -1 1094.39   66.29
   2  -1  -1 1064.79   68.79
  -2  -1   1 1127.29   38.00
  -2   1   1 1074.79   35.30
   2   1  -1 1091.99   72.49
   2   1  -1 1091.79   80.19
   2   1  -1 1026.90   39.30
   2   1  -1 1072.09   37.30
   1  -1  -1 8138.49  251.07
  -1  -1   1 8464.35  267.97
   1   1  -1 8510.75  275.57
   1  -1   1 5472.35  192.28
   1   1   1 5441.76  196.18
  -1   1  -1 5477.15  188.88
   2  -1   1  230.08   35.30
  -2  -1  -1  226.08   13.70
   2  -1   1  240.98   13.60
   2   1   1  213.78   14.00
   2   1   1  239.68   10.30
   2   1   1  201.88   36.80
   2   1   1  216.08   34.10
  -2   1  -1  239.18   13.00
  -3  -1  -1   94.89    9.80
   3  -1   1   49.70   29.70
   3  -1   1   95.39   10.00
   3  -1   1   62.09   26.00
  -3   1  -1   76.79    8.50
   3   1   1   59.39   15.60
   3   1   1   74.89   28.90
   3   1   1   62.59   41.20
   3   1   1   78.09    5.00
  -4  -1  -1   12.90    6.00
   4  -1   1   17.60    7.40
   4   1   1   40.20   51.99
   4   1   1   24.90    8.40
  -4   1  -1   32.90    7.60
   4  -2  -1  110.39   45.10
  -3  -2   1    0.00    2.40
   3  -2  -1    3.10    2.10
   3  -2  -1    0.20    1.40
   3  -2  -1   -1.10    2.20
   3  -2  -1   31.60   18.60
   3  -2  -1   23.30   12.40
   3   2  -1   -2.90    2.10
   3   2  -1   -1.90    1.80
  -3   2   1   -2.10    1.50
   3   2  -1    4.90   15.40
   2  -2  -1 1440.06   45.50
  -2  -2   1 1497.65   49.30
   2  -2  -1 1493.55   75.99
   2  -2  -1 1488.75   76.39
  -2   2   1 1347.47   43.60
   2   2  -1 1367.46   87.89
   2   2  -1 1462.95  100.19
   2   2  -1 1354.76   50.49
   1  -2  -1 4136.79  120.09
   1  -2  -1 3922.51  120.39
  -1  -2   1 4017.80  155.08
   1   2  -1 3793.12  158.98
   0  -2   1 1367.86   67.49
   0   2  -1 1318.87   66.49
   0   2   1 1366.16   55.09
   1  -2   1 3241.78  130.69
   1   2   1 3295.97  136.69
  -1   2  -1 3258.77  128.49
   1   2   1 3358.46  139.09
  -2  -2  -1  129.99   10.30
   2  -2   1  227.58   73.59
   2  -2   1  122.79    9.10
   2   2   1  119.79   34.30
  -2   2  -1  134.59    9.10
   2   2   1  133.59   27.80
  -2   2  -1  138.19   24.60
   2   2   1  112.19   10.40
   2   2   1  120.69    7.80
   3  -2   1  145.79   31.80
   3  -2   1  145.79   12.10
  -3  -2  -1  164.08   13.50
   3  -2   1   93.69   40.60
   3   2   1  159.78    9.20
   3   2   1  144.19   52.59
   3   2   1  158.08   14.50
   3   2   1  137.59   41.00
  -3   2  -1  155.38   11.80
  -4  -2  -1  251.97   18.70
   4  -2   1  177.98   16.10
   4   2   1   53.09   72.49
   4   2   1  217.28   19.90
  -4   2  -1  202.38   15.50
  -4  -3   1   70.69   11.10
  -4  -3   1   87.69   10.30
  -4   3   1   64.89    6.10
   4   3  -1   48.70   50.99
   4   3  -1   65.89    8.10
  -4   3   1   81.49    8.00
   3  -3  -1  128.19   28.00
  -3  -3   1  119.99   11.50
   3  -3  -1  135.29   22.80
   3  -3  -1   99.29    8.60
   3  -3  -1  125.89    8.30
   3   3  -1  114.29   10.10
  -3   3   1  116.39    7.90
   3   3  -1  117.39   20.40
   3   3  -1  128.49   39.60
   3   3  -1  122.09   36.00
   2  -3  -1  404.06   32.30
  -2  -3   1  387.26   20.00
   2  -3  -1  453.65   34.50
   2  -3  -1  392.66   15.60
   2  -3  -1  396.66   17.50
  -2   3   1  377.36   14.40
   2   3  -1  384.66   51.69
   2   3  -1  395.36   19.20
   2   3  -1  415.36   21.90
  -1  -3   1 2487.85   85.99
  -1  -3   1 2890.81  128.09
   1  -3  -1 2794.92   80.29
   1   3  -1 2598.64  129.39
   1   3  -1 2523.25   82.59
   1   3  -1 2942.51   81.89
   0  -3   1  120.39    7.00
   0  -3   1  120.59    6.60
   0  -3  -1  123.99    6.90
   0  -3   1  121.29   19.30
   0  -3  -1  126.79    7.50
   0   3  -1  127.49    7.10
   0   3   1  126.89    7.00
   0   3  -1  118.49    6.60
   0   3  -1  113.49   19.60
   0   3   1  122.39    7.50
  -1  -3  -1 2287.37   68.09
   1  -3   1 2278.57  104.49
   1  -3   1 2184.18   66.89
  -1   3  -1 2190.78   66.79
   1   3   1 2307.47  110.49
   1   3   1 2374.86  113.69
  -1   3  -1 2295.17  100.49
   1   3   1 2307.87   71.09
   2  -3   1 1017.00   36.10
   2  -3   1 1026.60   75.59
  -2  -3  -1 1059.59   39.90
   2   3   1  955.00   81.29
  -2   3  -1 1015.40   35.80
   2   3   1 1101.19   87.39
   2   3   1 1021.40   35.50
   2   3   1 1021.60   41.10
  -2   3  -1 1023.20   68.89
   3  -3   1  298.47   17.80
   3  -3   1  288.27   40.90
   3  -3   1  337.97   53.39
  -3  -3  -1  336.27   27.90
  -3   3  -1  330.17   17.60
   3   3   1  330.67   22.50
   3   3   1  260.17   50.29
   3   3   1  238.98   60.69
   4   3   1  -84.99   59.19
  -4  -4   1  138.59   13.30
   4  -4  -1  221.88   68.69
  -4  -4   1  125.39   13.40
   4   4  -1  107.09   10.40
  -4   4   1   99.59    5.40
  -4   4   1   99.89    5.40
   4   4  -1  117.89   69.09
   3  -4  -1   33.30    5.00
   3  -4  -1   26.60    4.20
  -3  -4   1   28.00    7.10
   3   4  -1   32.00    8.60
   3   4  -1   12.60   16.20
   3   4  -1   38.90    7.20
  -3   4   1   29.70    3.50
   3   4  -1  -10.60   24.10
   2  -4  -1 1025.10   52.79
   2  -4  -1  975.30   34.20
  -2  -4   1  970.40   81.29
   2  -4  -1  943.11   30.60
   2  -4  -1  956.50   47.60
  -2  -4   1 1021.10   39.20
   2   4  -1  976.90   37.10
   2   4  -1  947.01   40.30
   2   4  -1  986.30   89.59
  -2   4   1  949.31   29.20
  -1  -4   1  968.10   70.29
   1  -4  -1  974.30   32.60
  -1  -4   1  928.81   35.10
   1  -4  -1  883.11   26.90
  -1   4   1  928.61   35.70
   1   4  -1  992.80   34.10
   1   4  -1  825.32   34.40
   1   4  -1  930.21   73.59
  -1   4   1  957.50   32.90
   0  -4   1 1348.37   79.19
   0  -4  -1 1362.06   41.60
   0  -4   1 1381.66   42.10
   0  -4  -1 1369.36   66.09
   0  -4  -1 1302.87   42.10
   0  -4   1 1210.88   40.40
   0   4  -1 1227.28   41.20
   0   4  -1 1337.97   40.90
   0   4  -1 1179.28   76.19
   0   4   1 1312.17   41.60
   0   4   1 1276.77   42.30
   1  -4   1  297.57   11.70
  -1  -4  -1  282.17   15.40
   1  -4   1  290.77   12.90
   1  -4   1  307.17   33.50
  -1   4  -1  291.17   11.80
   1   4   1  281.57   14.10
   1   4   1  295.27   16.00
  -1   4  -1  277.47   30.90
  -1   4  -1  303.97   12.80
   1   4   1  276.87   35.80
   2  -4   1  -14.50    8.60
   2  -4   1   -0.20    1.30
  -2  -4  -1    0.70    2.40
  -2   4  -1   -2.40    7.00
   2   4   1  -10.50    6.50
   2   4   1   24.30   12.70
  -2   4  -1    2.80    1.50
   2   4   1   -0.50    1.80
   2   4   1    0.90    2.40
  -3  -4  -1  229.48   17.30
   3  -4   1  212.58   34.90
   3  -4   1  230.98   14.70
   3   4   1  229.88   19.10
   3   4   1  249.78   63.89
   3   4   1  185.88   57.29
  -3   4  -1  232.58   14.00
   3   4   1  215.18   13.50
  -4  -5   1    2.50    4.30
  -4  -5   1    6.40    4.70
   4   5  -1    0.40    3.50
   4   5  -1   28.10   48.60
   3  -5  -1   52.29    5.10
   3  -5  -1   96.99   21.90
  -3  -5   1   71.79   11.50
   3  -5  -1   58.49    6.10
   3   5  -1   93.89   37.20
  -3   5   1   57.69    3.60
   3   5  -1   55.29    8.90
   3   5  -1   73.39   12.90
  -2  -5   1 1208.28   95.49
   2  -5  -1 1237.88   42.40
   2  -5  -1 1227.48   51.79
   2  -5  -1 1124.79   36.40
  -2  -5   1 1363.06   48.30
   2   5  -1 1234.78  105.79
   2   5  -1 1128.39   48.10
   2   5  -1 1238.68   45.30
  -1  -5   1 1768.12   60.49
   1  -5  -1 1866.81   67.19
  -1  -5   1 1789.22   58.59
  -1  -5   1 1712.73  105.59
   1  -5  -1 1745.53   51.19
   1   5  -1 1884.51   58.99
  -1   5   1 1813.62   70.79
   1   5  -1 1697.83  111.29
  -1   5   1 1753.62   57.29
   0  -5  -1 1534.55   49.70
   0  -5   1 1450.25   89.79
   0  -5  -1 1572.54   48.90
   0  -5   1 1484.05   47.50
   0  -5  -1 1484.85   77.19
   0   5  -1 1665.63   49.50
   0   5   1 1490.35   49.00
   0   5  -1 1467.45   92.29
   0   5   1 1504.45   49.70
   0   5  -1 1532.95   47.60
  -1  -5  -1 3411.46  102.99
   1  -5   1 3390.26  147.39
   1   5   1 3287.57  103.89
   1   5   1 3628.04  106.79
  -1   5  -1 3226.38  141.19
   1   5   1 3263.27  157.48
  -2  -5  -1  602.04   28.90
   2  -5   1  582.74   23.70
   2  -5   1  668.83   60.89
   2  -5   1  629.34   19.70
  -2  -5  -1  564.34   25.70
   2   5   1  609.14   65.69
   2   5   1  600.34   30.70
  -2   5  -1  601.54   51.39
   2   5   1  597.74   26.10
   2   5   1  663.53   71.99
  -2   5  -1  629.84   23.70
  -3  -5  -1  109.69   12.10
   3  -5   1   79.99   24.30
   3  -5   1   90.99    8.60
   3   5   1   78.19    8.40
   3   5   1   80.49   38.00
   3   5   1   41.60   40.60
  -3   5  -1   82.39    7.80
   3   5   1  101.69   15.60
   4  -5   1   75.89    8.70
  -4  -5  -1   83.79   13.70
   4   5   1   73.99   78.29
   4   5   1   58.79   14.70
   4   5   1   64.69    7.40
  -4   5  -1   84.09    8.10
  -4  -6   1   62.39   11.30
  -4  -6   1  110.69   15.00
   4   6  -1   76.69   11.20
   4   6  -1  154.98   64.89
  -3  -6   1  109.29   12.40
   3  -6  -1   85.79    5.80
   3   6  -1  101.49   37.00
   3   6  -1   45.00   28.00
   3   6  -1   96.49   11.00
   3   6  -1  101.39   12.70
   2  -6  -1  495.45   20.70
  -2  -6   1  509.45   26.00
   2  -6  -1  373.56   14.80
  -2  -6   1  446.16   58.49
   2   6  -1  472.95   66.19
   2   6  -1  455.05   23.30
   2   6  -1  442.76   26.10
  -1  -6   1   13.90    9.30
   1  -6  -1   10.10    6.00
   1  -6  -1   10.50    2.00
  -1  -6   1   10.70    3.20
  -1  -6   1    7.80    3.50
   1  -6  -1    9.40    3.10
  -1  -6   1    8.90    3.20
   1  -6  -1    9.50    2.30
   1   6  -1    8.10   11.40
   1   6  -1    8.30    3.00
  -1   6   1    9.60    7.30
  -1   6   1    9.40    3.30
   0  -6  -1 1938.71   61.79
   0  -6   1 1886.61   59.69
   0  -6   1 1811.72  109.09
   0  -6   1 1878.51   61.19
   0  -6  -1 1993.40   61.39
   0  -6  -1 1948.71   96.99
   0   6  -1 1829.82   69.89
   0   6  -1 1868.71  113.49
   0   6   1 2003.50   62.79
   0   6  -1 2077.79   60.09
   0   6   1 1823.42   61.09
   1  -6   1  366.76   43.60
   1  -6   1  419.16   17.30
   1  -6   1  443.36   17.80
  -1  -6  -1  300.97   41.80
  -1  -6  -1  422.26   21.10
  -1  -6  -1  421.26   19.90
  -1   6  -1  454.15   45.60
   1   6   1  378.16   47.90
  -1   6  -1  396.76   17.40
   1   6   1  396.96   21.50
  -1   6  -1  417.56   16.80
   1   6   1  408.16   20.00
   2  -6   1  353.36   13.80
  -2  -6  -1  377.86   21.70
   2  -6   1  325.77   15.90
   2  -6   1  285.27   42.50
  -2  -6  -1  342.47   19.00
   2   6   1  365.26   53.39
   2   6   1  341.57   22.40
  -2   6  -1  309.17   37.80
   2   6   1  364.06   19.40
   2   6   1  339.57   53.59
  -2   6  -1  341.37   15.60
   3  -6   1    1.80    2.60
  -3  -6  -1    2.30    3.90
   3   6   1    5.70    5.00
  -3   6  -1    2.50    2.20
   3   6   1    5.20    3.40
   3   6   1  -19.90   12.60
   3   6   1   41.20   21.60
   4   6   1    1.30   57.59
  -4  -7   1  222.18   19.20
  -4  -7   1  191.38   19.80
   4   7  -1  202.78   17.50
   4   7  -1  142.59   93.99
  -3  -7   1  869.11   40.10
   3  -7  -1  641.74   23.00
   3  -7  -1  788.42   28.20
   3   7  -1  826.42   36.70
   3   7  -1  747.33  100.89
   3   7  -1  697.13   39.90
  -2  -7   1  556.74   29.30
  -2  -7   1  513.95   65.49
   2  -7  -1  535.15   23.30
   2   7  -1  540.45   73.89
   2   7  -1  543.35   27.00
   2   7  -1  480.85   28.90
   1  -7  -1  208.78    9.60
  -1  -7   1  181.58   14.30
   1  -7  -1  191.18   10.70
  -1  -7   1  200.08   12.80
  -1  -7   1  200.98   14.00
  -1  -7   1  217.78   34.60
   1  -7  -1  198.58   12.70
   1  -7  -1  212.78   22.50
  -1   7   1  205.18   13.40
   1   7  -1  189.08   13.40
   1   7  -1  197.08   50.79
  -1   7   1  197.58   26.10
   0  -7  -1  188.18   12.50
   0  -7   1  185.18   11.20
   0  -7  -1  208.68   28.00
   0  -7  -1  199.38   12.40
   0  -7   1  161.78   11.70
   0  -7   1  171.98   31.30
   0   7  -1  187.28   34.70
   0   7   1  177.68   12.10
   0   7  -1  208.88   12.70
   0   7   1  181.88   12.50
   1  -7   1   37.00    5.80
   1  -7   1   26.30    4.20
   1  -7   1   14.10   11.70
  -1  -7  -1   36.80    6.40
  -1  -7  -1   52.39   22.20
  -1  -7  -1   32.10    6.50
  -1   7  -1   27.10   15.50
  -1   7  -1   33.70    4.10
   1   7   1   34.70   19.60
   1   7   1   31.90    6.20
  -1   7  -1   40.90    5.00
   1   7   1   33.80    7.60
  -2  -7  -1  551.74   26.70
   2  -7   1  548.45   21.00
  -2  -7  -1  598.24   29.70
   2  -7   1  510.65   56.59
   2  -7   1  561.44   22.80
  -2   7  -1  526.05   50.69
  -2   7  -1  558.24   21.80
   2   7   1  549.05   66.69
   2   7   1  550.94   30.80
   2   7   1  493.85   69.09
   2   7   1  528.75   26.30
   3  -7   1   24.00    4.90
  -3  -7  -1   35.50    7.90
  -3   7  -1   22.40    4.40
   3   7   1   27.10    8.60
   3   7   1   70.69   40.80
   3   7   1   22.40    5.90
   3   7   1   31.90   18.70
  -4  -7  -1    4.20    5.20
   4  -7   1   -0.30    3.40
  -4   7  -1    6.40    2.60
   4   7   1    9.30    8.10
   4   7   1   -5.80   58.99
   4   7   1    6.00    4.10
  -4  -8   1  171.58   17.30
  -4  -8   1  161.08   17.70
   4   8  -1   60.99   70.39
   4   8  -1  163.28   26.60
   3  -8  -1   19.50    4.40
  -3  -8   1   26.70    7.10
  -3  -8   1   28.60    8.00
   3   8  -1   32.20    7.90
   3   8  -1    4.50   24.50
   3   8  -1   70.99   29.30
  -2  -8   1   73.19   33.20
   2  -8  -1   89.99    8.50
   2  -8  -1   87.79    5.40
  -2  -8   1   93.39   11.40
   2   8  -1  115.59   55.09
   2   8  -1   78.39   11.50
  -2   8   1  100.49   12.00
   2   8  -1   66.29   11.80
  -1  -8   1 1205.48   43.30
   1  -8  -1 1249.97   43.90
   1  -8  -1 1158.78   40.20
   1  -8  -1 1201.58   67.89
  -1  -8   1 1121.59   95.39
   1  -8  -1 1182.98   38.00
  -1  -8   1 1183.08   47.60
  -1  -8   1 1173.38   45.50
   1   8  -1 1136.09  103.19
   1   8  -1 1193.18   45.40
  -1   8   1 1147.29   75.39
  -1   8   1 1113.49   43.70
   0  -8   1   90.59    8.90
   0  -8  -1   99.59   21.00
   0  -8  -1   88.69    8.80
   0  -8   1   77.59    8.80
   0  -8  -1   84.89    8.60
   0  -8   1   73.59   26.20
   0  -8   1  101.09    8.30
   0   8  -1   77.89   25.40
   0   8   1   99.19    9.40
   0   8  -1   93.09    8.90
  -1  -8  -1  274.27   17.90
   1  -8   1  272.77   14.20
   1  -8   1  297.77   41.40
  -1  -8  -1  319.77   45.00
  -1  -8  -1  288.77   17.50
   1  -8   1  282.07   15.40
   1   8   1  256.37   18.40
  -1   8  -1  252.17   39.20
  -1   8  -1  277.17   13.80
   1   8   1  233.18   43.30
   1   8   1  268.27   17.20
  -1   8  -1  268.57   15.30
   2  -8   1  -12.50   12.30
  -2  -8  -1    3.60    2.70
   2  -8   1    0.10    1.60
  -2  -8  -1    5.20    3.50
   2  -8   1   -0.80    1.40
  -2   8  -1   -1.10    9.40
   2   8   1    3.50    4.10
   2   8   1    1.80    9.70
  -2   8  -1    1.30    1.70
   2   8   1   18.20   15.00
   2   8   1    2.10    2.30
  -2   8  -1    1.30    1.90
  -3  -8  -1  131.49   15.10
   3  -8   1  140.29   10.30
   3   8   1  245.98   52.89
   3   8   1   89.89   37.40
   3   8   1  135.99   13.60
  -3   8  -1  175.28   39.10
  -3   8  -1  144.99    9.30
   3   8   1  128.29   16.00
  -4  -8  -1    5.50    5.70
   4  -8   1   14.90    4.20
  -4   8  -1    9.90    3.40
   4   8   1   -0.60    8.10
   4   8   1   -1.10   91.29
   4   8   1   16.10    6.00
  -4  -9   1  106.69   16.10
   4   9  -1  113.89   16.10
  -3  -9   1   19.90    6.90
  -3  -9   1   26.00    7.30
   3  -9  -1   16.40    4.30
   3   9  -1  -16.90   21.60
   3   9  -1   13.90    6.20
   3   9  -1  -16.80   24.40
  -2  -9   1   22.40    7.50
   2  -9  -1   30.60    5.90
   2  -9  -1   23.20    3.90
  -2  -9   1   33.50   15.30
  -2  -9   1   28.00    6.30
   2  -9  -1   19.80    3.00
   2   9  -1   22.90    6.20
  -2   9   1   17.40    9.40
   2   9  -1   46.40   19.80
   1  -9  -1  185.78   12.20
  -1  -9   1  203.08   13.90
  -1  -9   1  184.18   14.80
   1  -9  -1  206.18   11.00
  -1  -9   1  228.68   17.40
   1  -9  -1  218.38   28.40
   1  -9  -1  212.48   14.40
  -1  -9   1  194.68   40.80
  -1   9   1  200.98   14.70
   1   9  -1  215.38   15.60
   1   9  -1  229.18   60.19
  -1   9   1  216.48   34.00
   0  -9  -1   -1.60    1.90
   0  -9   1   -2.20    1.70
   0  -9   1    3.50    2.80
   0  -9   1   -0.60    1.10
   0  -9  -1    6.40    6.30
   0  -9  -1   -0.90    1.00
   0  -9   1    3.40    6.30
   0   9  -1    0.50    1.60
   0   9   1    1.00    1.70
   0   9  -1   10.40    9.10
   1  -9   1  194.18   13.10
  -1  -9  -1  176.68   14.60
  -1  -9  -1  175.28   13.90
   1  -9   1  163.98   11.20
  -1  -9  -1  218.98   38.10
   1  -9   1  198.78   37.00
   1   9   1  169.28   15.00
   1   9   1  173.98   49.00
  -1   9  -1  202.38   13.50
   1   9   1  179.88   14.30
  -1   9  -1  182.28   11.10
  -1   9  -1  165.68   34.80
   2  -9   1   51.19    6.00
  -2  -9  -1   38.80    8.20
  -2  -9  -1   68.59   12.40
   2  -9   1   49.40    6.10
   2   9   1   38.90   32.10
   2   9   1   61.39   10.30
  -2   9  -1   48.90    5.50
  -2   9  -1   48.20    7.30
   2   9   1   49.40   11.10
  -2   9  -1   26.60   20.00
   3  -9   1   72.09   23.30
   3  -9   1   23.90    4.70
  -3  -9  -1   20.70    7.70
   3   9   1   82.59   33.20
  -3   9  -1   21.50    4.00
  -3   9  -1    5.00   13.20
   3   9   1   31.20    7.70
   3   9   1   25.70    8.00
   3   9   1  -22.80   28.40
  -4  -9  -1   -8.80    6.90
   4  -9   1    2.10    4.10
   4   9   1   -5.20    4.30
  -3 -10   1   30.90    8.70
   3 -10  -1   41.90    6.90
  -3 -10   1   47.20   10.50
   3  10  -1  109.09   44.10
   2 -10  -1  715.33   52.79
   2 -10  -1  724.53   27.20
  -2 -10   1  767.52   35.10
   2 -10  -1  766.32   32.30
  -2 -10   1  715.13   88.19
   2 -10  -1  718.63   25.40
  -2 -10   1  775.72   39.20
   2  10  -1  708.13   35.80
   2  10  -1  723.03  101.09
  -2  10   1  669.73   44.80
  -2  10   1  695.53   33.10
  -1 -10   1  377.86   21.00
  -1 -10   1  384.76   23.00
  -1 -10   1  353.96   56.59
   1 -10  -1  358.06   19.00
  -1 -10   1  390.36   24.70
   1 -10  -1  393.26   41.50
   1 -10  -1  354.86   16.90
   1 -10  -1  431.36   22.40
  -1  10   1  380.96   49.30
  -1  10   1  366.66   21.80
   1  10  -1  352.76   22.00
   1  10  -1  335.57   59.29
   0 -10  -1  157.78   14.40
   0 -10  -1  161.58   40.30
   0 -10  -1  145.09   12.70
   0 -10   1  120.29   12.30
   0 -10   1  146.09   12.80
   0 -10   1  121.19   10.40
   0 -10  -1  138.79   10.50
   0 -10   1  186.78   34.50
   0  10   1  151.28   13.10
   0  10  -1  161.98   13.00
   0  10  -1  214.58   59.19
   1 -10   1  467.35   59.59
   1 -10   1  492.15   23.80
   1 -10   1  470.25   21.60
  -1 -10  -1  492.45   26.90
  -1 -10  -1  516.15   62.19
  -1 -10  -1  438.06   24.80
   1  10   1  383.26   25.50
  -1  10  -1  459.45   20.60
   1  10   1  430.36   25.10
  -1  10  -1  429.96   58.69
  -1  10  -1  462.65   23.60
   1  10   1  422.96   64.99
   2 -10   1   33.40    6.30
  -2 -10  -1   33.70    8.20
  -2 -10  -1   42.00    9.50
   2 -10   1   51.89   17.20
   2 -10   1   51.09    7.30
   2  10   1   13.70   23.00
  -2  10  -1   40.10    5.80
  -2  10  -1   39.00    7.10
   2  10   1   43.50    9.10
   2  10   1   41.60   10.30
  -2  10  -1   51.79   21.40
  -3 -10  -1   -8.20    3.60
   3 -10   1   -2.20   20.50
   3 -10   1    0.00    3.60
   3  10   1   -3.00    3.50
   3  10   1   -4.40   29.60
   3  10   1    0.90    3.20
   3  10   1   21.60   27.10
  -3  10  -1   18.30   11.50
  -3  10  -1    0.10    1.60
  -3 -11   1   69.49   13.70
   3 -11  -1   77.09    8.60
   3  11  -1   70.09   13.30
  -2 -11   1  883.71   40.10
   2 -11  -1  884.11   37.30
   2 -11  -1  862.81   30.60
  -2 -11   1  939.41  122.39
   2 -11  -1  847.72   32.50
   2  11  -1  904.31   42.40
   2  11  -1  918.61  112.79
  -2  11   1  870.61   39.40
  -2  11   1  870.71   56.69
   1 -11  -1    1.80    1.80
   1 -11  -1    0.30    2.00
  -1 -11   1   -3.30    1.90
   1 -11  -1    4.40    6.70
   1 -11  -1    7.40    3.70
  -1 -11   1   -2.20    2.30
  -1 -11   1   -1.80    2.40
  -1 -11   1  -14.90   11.90
   1  11  -1    1.80    2.70
  -1  11   1    2.70    2.40
  -1  11   1  -13.50    7.90
   1  11  -1   11.10   19.80
   0 -11   1  644.44   74.29
   0 -11  -1  595.54   26.30
   0 -11   1  592.64   27.20
   0 -11  -1  609.34   29.80
   0 -11   1  569.44   30.70
   0 -11  -1  575.74   29.70
   0 -11   1  565.54   29.30
   0 -11  -1  602.64   64.49
   0  11  -1  620.44   78.69
   0  11  -1  566.14   29.10
   0  11   1  652.23   31.60
  -1 -11  -1  637.94   31.90
  -1 -11  -1  653.13   33.30
   1 -11   1  677.23   71.59
  -1 -11  -1  620.04   75.29
   1 -11   1  588.84   26.60
   1 -11   1  628.54   29.50
  -1  11  -1  608.74   29.70
   1  11   1  657.63   32.80
   1  11   1  536.25   32.00
  -1  11  -1  655.63   72.59
   1  11   1  511.55   74.49
   2 -11   1  368.46   50.99
  -2 -11  -1  350.16   27.30
   2 -11   1  338.97   19.00
  -2 -11  -1  315.47   22.60
   2 -11   1  321.37   17.60
   2  11   1  311.37   66.09
  -2  11  -1  331.87   45.40
   2  11   1  323.47   25.70
  -2  11  -1  349.77   20.40
  -2  11  -1  344.17   16.80
   2  11   1  356.86   24.00
  -3 -11  -1   60.79   12.80
   3 -11   1   60.69    6.60
   3  11   1  132.69   56.79
  -3  11  -1   41.90   21.10
   3  11   1   35.90   11.80
   3  11   1   59.59   11.70
   3  11   1   54.29   32.30
  -3  11  -1   55.09    5.40
  -3 -12   1  192.28   20.20
  -3 -12   1  155.48   16.60
   3 -12  -1  174.18   13.50
   3  12  -1   92.99   40.50
   3  12  -1  166.48   18.20
   2 -12  -1  203.58   15.80
   2 -12  -1  191.08   11.30
   2 -12  -1  202.88   12.80
  -2 -12   1  197.28   17.10
  -2 -12   1  209.18   58.49
  -2 -12   1  224.18   20.40
   2 -12  -1  204.28   25.80
   2  12  -1  300.27   83.39
   2  12  -1  213.68   23.30
  -2  12   1  167.88   28.50
  -2  12   1  195.78   16.90
   1 -12  -1  104.49   29.30
   1 -12  -1   97.69    8.60
  -1 -12   1  104.99   15.80
   1 -12  -1   81.89    9.20
  -1 -12   1  161.28   49.40
  -1 -12   1   92.89   10.40
  -1 -12   1  101.49   12.50
   1 -12  -1   97.69   11.00
   1  12  -1   72.19   31.60
   1  12  -1  101.99   12.30
  -1  12   1  114.69   12.60
  -1  12   1   93.89   31.80
   0 -12  -1   53.69    8.20
   0 -12  -1   51.99    9.40
   0 -12   1   45.20    8.80
   0 -12  -1   46.50    9.50
   0 -12   1   53.39   10.50
   0 -12   1   55.79   26.30
   0 -12   1   41.80    7.60
   0 -12  -1   75.59   28.50
   0  12   1   62.59   10.80
   0  12  -1   17.10   19.00
   0  12  -1   62.59   10.60
  -1 -12  -1   79.09   12.30
   1 -12   1  166.08   44.30
  -1 -12  -1   91.99   14.30
   1 -12   1   89.29   10.40
   1 -12   1   81.09    8.70
  -1 -12  -1   98.59   34.90
   1  12   1   93.89   14.60
   1  12   1   88.99   39.60
   1  12   1   86.59   13.70
  -1  12  -1   78.99   10.00
  -1  12  -1   93.69   37.60
   2 -12   1   72.69    7.90
  -2 -12  -1   80.99   13.50
   2 -12   1   74.89    9.20
  -2 -12  -1   80.59   14.20
   2  12   1   82.59   67.29
   2  12   1   88.89   14.40
  -2  12  -1  106.19   36.10
  -2  12  -1   83.09   10.20
   2  12   1   78.89   15.00
   3 -12   1   63.09   25.70
   3 -12   1   16.60    3.90
  -3 -12  -1    7.00    6.70
   3  12   1    2.00    8.20
   3  12   1  -32.70   34.60
   3  12   1   19.10    6.80
  -3  12  -1   30.00   18.70
  -3 -13   1   62.19   13.30
   3 -13  -1   55.79    9.40
  -3 -13   1   62.69   12.80
   3  13  -1   62.09   13.20
   3  13  -1  124.49   55.49
   2 -13  -1   73.19   11.40
   2 -13  -1   74.79    8.10
   2 -13  -1  106.29   18.70
  -2 -13   1   89.59   48.50
  -2 -13   1   69.89   12.20
   2 -13  -1   83.09    7.50
  -2 -13   1   92.99   16.30
  -2  13   1   79.99   12.90
   2  13  -1   84.49   34.60
  -2  13   1   87.29   27.60
   2  13  -1   75.29   13.30
   1 -13  -1 1552.24   54.19
   1 -13  -1 1652.13  107.99
   1 -13  -1 1569.14   58.09
  -1 -13   1 1547.45   65.49
   1 -13  -1 1632.14   61.59
  -1 -13   1 1529.75   59.29
  -1 -13   1 1650.53   66.79
  -1 -13   1 1645.34  137.59
   1  13  -1 1601.84   63.59
  -1  13   1 1470.85  118.79
  -1  13   1 1587.74   62.79
   1  13  -1 1301.87  139.99
   0 -13  -1  333.97   19.20
   0 -13   1  298.27   21.60
   0 -13  -1  308.67   21.30
   0 -13   1  352.26   56.19
   0 -13   1  287.87   21.90
   0 -13  -1  303.97   51.19
   0 -13   1  289.87   18.90
   0 -13  -1  306.87   21.70
   0  13  -1  343.67   62.49
   0  13   1  301.57   22.00
   0  13  -1  312.77   21.90
   1 -13   1   21.00    6.00
   1 -13   1   18.50    5.10
  -1 -13  -1    9.40    4.60
   1 -13   1   33.70   19.70
  -1 -13  -1   20.40   17.00
   1 -13   1   12.60    5.70
  -1 -13  -1   22.20    7.80
  -1  13  -1   17.60   16.60
   1  13   1   14.00   26.50
   1  13   1   26.40    7.70
  -1  13  -1    5.90    4.20
  -2 -13  -1    5.70    4.50
   2 -13   1    7.60    3.50
   2 -13   1    6.70    3.90
   2 -13   1   18.30   21.70
  -2  13  -1   10.00    4.50
  -2  13  -1   29.60   19.50
   2  13   1   -2.70    3.00
   2  13   1   13.50   19.50
   2  13   1    2.90    6.10
   3 -13   1   12.20   22.40
  -3 -13  -1    0.20    4.20
   3  13   1   40.80   42.90
   3  13   1   74.29   53.09
   3  13   1   -2.60    5.10
  -3  13  -1  -10.60   17.20
   3  13   1   10.40   12.60
  -3 -14   1    6.70    6.60
   3 -14  -1    0.50    3.40
  -3 -14   1   -4.30    4.50
   3  14  -1   -2.90    5.60
   3  14  -1  -70.39   41.80
  -2 -14   1   78.89   15.00
  -2 -14   1   83.69   13.60
   2 -14  -1   71.29    7.30
  -2 -14   1   71.39   30.00
   2 -14  -1   80.59    8.60
   2 -14  -1   66.59   19.20
   2 -14  -1   63.49   10.90
   2  14  -1   48.50   11.20
   2  14  -1   67.49   56.59
  -2  14   1   69.09   12.70
  -1 -14   1  554.44   79.49
   1 -14  -1  522.15   61.39
  -1 -14   1  522.85   29.20
  -1 -14   1  606.14   35.60
  -1 -14   1  569.34   33.40
   1 -14  -1  570.84   29.20
   1 -14  -1  555.44   26.10
   1 -14  -1  514.05   30.10
   1  14  -1  560.14   34.10
   1  14  -1  489.25   85.09
  -1  14   1  580.14   74.59
  -1  14   1  581.94   33.00
   0 -14   1    7.90    4.60
   0 -14  -1    5.40    3.80
   0 -14   1    5.40    4.20
   0 -14   1    8.90    5.80
   0 -14  -1    8.80    4.60
   0 -14  -1    8.40   15.30
   0 -14  -1    6.70    3.60
   0 -14   1   21.80   14.80
   0  14   1   11.10    5.60
   0  14  -1   32.40   19.70
   0  14  -1    7.50    5.40
   1 -14   1   -0.80    3.50
   1 -14   1    0.10   19.60
  -1 -14  -1   10.50    6.00
   1 -14   1    4.10    4.00
  -1 -14  -1   -5.10   13.70
  -1 -14  -1    6.40    5.50
  -1 -14  -1    6.10    4.60
   1 -14   1    1.70    2.90
   1  14   1   -3.60   23.50
  -1  14  -1   10.40    5.60
   1  14   1   -1.60    3.40
   2 -14   1   54.49    8.60
   2 -14   1   54.49    9.60
  -2 -14  -1   68.19   14.00
   2 -14   1  136.59   41.10
  -2 -14  -1   38.70   10.40
   2  14   1   97.89   34.80
   2  14   1   49.60   11.10
  -2  14  -1   55.59   26.20
  -2  14  -1   31.10    8.00
  -3 -14  -1    1.60    4.80
   3 -14   1    0.90    2.80
   3  14   1    5.30    5.50
   3  14   1  -55.09   37.90
   3  14   1    2.50   36.10
  -3 -15   1    0.60    6.80
  -3 -15   1   -7.30    3.60
   3 -15  -1   -3.40    3.60
   3  15  -1   -0.40    6.90
   3  15  -1  -21.00   45.60
  -2 -15   1   61.49   31.50
   2 -15  -1   39.20   14.80
  -2 -15   1   38.40   10.50
   2 -15  -1   26.90    5.40
   2 -15  -1   35.40    7.20
  -2 -15   1   29.50    8.90
  -2  15   1   10.60   19.80
   2  15  -1   27.60    8.80
   2  15  -1  -22.20   29.50
  -2  15   1   35.80   10.00
  -1 -15   1  531.45   84.49
   1 -15  -1  482.35   24.50
  -1 -15   1  483.95   32.70
   1 -15  -1  521.95   30.20
   1 -15  -1  439.96   58.39
   1 -15  -1  461.45   27.00
  -1 -15   1  473.55   28.10
  -1 -15   1  498.35   32.10
   1  15  -1  468.15   30.70
  -1  15   1  462.45   30.20
   1  15  -1  459.75   89.39
  -1  15   1  450.75   70.79
   0 -15  -1  217.98   19.70
   0 -15   1  215.98   19.50
   0 -15  -1  230.18   16.90
   0 -15  -1  188.88   17.90
   0 -15   1  221.88   20.20
   0 -15   1  250.07   18.00
   0 -15  -1  250.87   51.89
   0 -15   1  243.58   49.70
   0  15  -1  150.18   51.09
   0  15   1  212.78   20.60
   1 -15   1  704.43   37.90
  -1 -15  -1  853.51   43.20
   1 -15   1  779.02   39.10
  -1 -15  -1  731.73   40.40
  -1 -15  -1  749.73   37.10
   1 -15   1  771.92  109.29
   1 -15   1  739.53   34.60
  -1 -15  -1  737.93   95.09
  -1  15  -1  780.02   39.60
   1  15   1  775.42   42.20
  -1  15  -1  770.52   95.99
   1  15   1  737.13  106.19
   2 -15   1  160.68   42.50
   2 -15   1   80.99   12.30
  -2 -15  -1  103.89   13.00
   2 -15   1  105.89   12.20
  -2 -15  -1   73.59   14.20
   2 -15   1   94.49    9.60
  -2 -15  -1   79.19   14.40
   2  15   1  118.89   18.40
  -2  15  -1  135.09   48.60
   2  15   1   68.69   38.50
  -2  15  -1   99.29   14.40
   3 -15   1   14.70    4.50
   3 -15   1   26.80    6.80
  -3 -15  -1   36.00   10.90
  -3 -15  -1   29.90    9.90
   3  15   1   -0.20   46.00
  -3  15  -1   62.89   28.40
   3  15   1   34.70   11.00
   3 -16  -1   11.80    5.80
  -3 -16   1   20.10   10.50
   3  16  -1   -4.10    8.20
   2 -16  -1   25.20    7.60
  -2 -16   1   20.20   26.20
   2 -16  -1   23.60    5.60
  -2 -16   1   13.50    7.30
   2 -16  -1   13.20    4.40
  -2 -16   1   12.00    6.20
   2  16  -1   21.20    9.10
   2  16  -1   13.70   47.30
  -2  16   1   19.90   22.70
  -2  16   1   23.60    8.40
   1 -16  -1   45.80    9.40
   1 -16  -1   39.70    7.70
  -1 -16   1   73.59   34.70
  -1 -16   1   56.49   12.60
  -1 -16   1   31.00    8.30
  -1 -16   1   42.40   12.20
   1 -16  -1   38.30    9.20
   1 -16  -1   23.90   21.70
   1  16  -1   35.70    9.60
   1  16  -1   70.59   56.19
  -1  16   1    5.30   22.70
  -1  16   1   37.40    9.50
   0 -16   1  752.22   40.80
   0 -16  -1  757.92   91.39
   0 -16   1  767.82   36.90
   0 -16  -1  839.62   41.70
   0 -16  -1  779.82   41.50
   0 -16   1  692.03   40.50
   0 -16   1  771.62   92.99
   0 -16  -1  784.52   36.40
   0  16  -1  714.73   40.30
   0  16   1  766.82   42.50
   0  16  -1  664.13  103.89
   1 -16   1   -4.00   24.50
  -1 -16  -1    1.60    3.80
  -1 -16  -1    4.50    4.40
   1 -16   1   -0.60    3.30
   1 -16   1   -0.90    3.00
   1 -16   1    1.60    3.50
  -1 -16  -1    8.00    6.00
  -1 -16  -1   13.80   16.60
  -1  16  -1    1.30   24.70
  -1  16  -1    4.10    4.10
   1  16   1   -1.70    2.80
   2 -16   1   18.10    5.50
  -2 -16  -1   22.60    8.30
   2 -16   1    8.50    4.80
   2 -16   1   10.60    4.20
  -2 -16  -1   23.40    7.90
   2 -16   1   38.80   23.90
  -2 -16  -1    6.60    6.70
  -2  16  -1   11.70   28.70
   2  16   1  -23.70   29.70
  -2  16  -1    0.80    3.90
   2  16   1   28.00    7.10
   3  16   1   81.29   20.50
  -3  16  -1   25.90   28.80
  -2 -17   1  145.89   16.60
   2 -17  -1  156.98   16.70
   2 -17  -1  124.29   12.20
   2 -17  -1  122.99   11.30
  -2 -17   1   70.49   35.10
  -2  17   1  155.98   18.20
   2  17  -1  131.49   20.60
  -2  17   1   96.69   42.40
   2  17  -1  132.49   70.59
  -1 -17   1  183.08   17.30
   1 -17  -1  160.08   44.50
  -1 -17   1  248.58   47.70
   1 -17  -1  219.08   18.40
   1 -17  -1  191.48   18.90
  -1 -17   1  171.68   19.30
  -1 -17   1  207.28   21.40
   1 -17  -1  193.08   15.20
   1  17  -1  186.68   19.30
  -1  17   1  222.78   67.49
  -1  17   1  171.38   19.40
   1  17  -1  203.88   79.39
   0 -17   1   23.10   20.50
   0 -17  -1   32.20    8.90
   0 -17   1   31.30    8.80
   0 -17  -1    2.60   19.10
   0 -17  -1   19.50    8.60
   0 -17   1   20.30    6.50
   0 -17  -1   25.20    7.50
   0 -17   1   28.70    9.50
   0  17   1   29.60    9.40
   0  17  -1   16.20    6.10
   0  17  -1  -24.70   29.90
   1 -17   1   12.50   17.90
   1 -17   1    0.20    4.80
  -1 -17  -1    1.40    6.30
  -1 -17  -1   40.50   18.00
   1 -17   1   16.00    5.60
  -1 -17  -1    9.90    6.40
  -1 -17  -1    5.50    4.60
   1 -17   1    3.20    4.20
   1  17   1  -41.50   29.80
   1  17   1   10.20    6.70
  -1  17  -1    4.30    5.70
  -1  17  -1  -38.90   28.20
  -2 -17  -1  469.45   30.80
   2 -17   1  432.66   28.00
  -2 -17  -1  361.06   30.00
   2 -17   1  370.66   25.90
   2 -17   1  414.06   23.90
   2  17   1  525.05  108.29
  -2  17  -1  386.36   75.79
  -2  17  -1  439.06   30.20
   2  17   1  395.06   31.90
  -2 -18   1  104.69   48.60
  -2 -18   1   59.69   14.50
   2 -18  -1   44.00    8.10
  -2 -18   1   82.99   16.50
   2 -18  -1   60.99    9.30
   2 -18  -1   72.29   14.30
  -2  18   1   50.79   38.30
   2  18  -1   32.10   57.59
  -2  18   1   73.09   14.90
   1 -18  -1  130.59   14.90
  -1 -18   1  161.18   19.50
   1 -18  -1  127.79   13.50
  -1 -18   1  134.89   16.00
   1 -18  -1  152.48   50.29
  -1 -18   1  142.19   21.80
   1 -18  -1  141.79   17.00
  -1  18   1  105.59   17.90
   1  18  -1  162.18   19.00
   1  18  -1  161.98   67.89
  -1  18   1  170.98   54.79
   0 -18  -1  223.18   21.40
   0 -18  -1  217.28   22.30
   0 -18   1  213.88   18.60
   0 -18   1  225.18   62.09
   0 -18   1  213.18   21.30
   0 -18   1  198.28   20.80
   0 -18  -1  229.98   19.00
   0  18  -1  225.38   75.99
   0  18   1  230.68   23.30
   0  18  -1  213.18   21.30
   1 -18   1   26.50   22.30
  -1 -18  -1   19.70    8.10
  -1 -18  -1   25.60    7.90
  -1 -18  -1   32.90   10.00
   1 -18   1   17.30    7.80
   1 -18   1   21.20    7.30
   1 -18   1   23.00    7.30
  -1 -18  -1   30.60   17.30
   1  18   1   19.60    8.80
   1  18   1   51.89   43.50
  -1  18  -1   20.40    7.90
  -1  18  -1   25.40   44.30
  -2 -18  -1    1.60    4.60
   2 -18   1   64.09   30.00
  -2 -18  -1   13.50    8.70
   2 -18   1   26.60    5.70
   2 -18   1    4.60    5.10
  -2 -18  -1   -0.90    6.60
   2 -18   1    2.50    4.70
   2  18   1   18.70    8.30
   2  18   1   22.20   45.50
  -2  18  -1   10.40    6.50
  -2  18  -1   25.60   36.40
  -2 -19   1  176.88   20.30
   2 -19  -1  169.38   15.60
   2 -19  -1  187.28   20.90
   2 -19  -1  171.88   14.60
  -2 -19   1   86.79   69.29
   2  19  -1  199.28   23.80
  -2  19   1  173.98   20.80
   2  19  -1  165.38   97.29
   1 -19  -1   -2.90    6.20
  -1 -19   1   -3.20    6.20
   1 -19  -1   -5.00    3.90
  -1 -19   1   -2.50    4.60
  -1 -19   1   -3.80    4.50
   1 -19  -1   -0.80    4.20
   1 -19  -1    7.80   16.50
  -1  19   1   -6.70   32.50
   1  19  -1   -5.00    4.90
  -1  19   1    5.20    4.70
   1  19  -1  -65.49   43.90
   0 -19   1  196.58   21.80
   0 -19  -1  250.17   22.50
   0 -19  -1  181.28   54.99
   0 -19   1  226.48   22.90
   0 -19   1  236.08   20.00
   0 -19  -1  269.27   24.60
   0 -19  -1  198.58   18.50
   0  19   1  224.28   23.20
   0  19  -1  236.68   23.30
   0  19  -1  179.48   75.69
   1 -19   1  109.49   18.30
  -1 -19  -1  124.39   21.60
  -1 -19  -1  140.99   17.70
   1 -19   1  112.49   18.20
   1 -19   1  103.19   14.80
   1 -19   1   89.79   44.20
  -1 -19  -1  131.19   20.10
   1  19   1   28.50   52.49
  -1  19  -1  118.99   18.80
   1  19   1  113.09   19.60
  -2 -19  -1  121.09   18.80
  -2 -19  -1   87.49   17.90
   2 -19   1  112.19   18.30
   2 -19   1  123.79   14.70
   2 -19   1  100.69   16.00
  -2 -19  -1   70.79   22.30
  -2  19  -1  137.09   56.99
  -2  19  -1  101.59   17.50
   2  19   1  208.68   72.79
   2  19   1  134.39   99.79
   2  19   1  132.89   20.90
   1 -20  -1   93.09   15.40
   1 -20  -1   63.59   30.70
   1 -20  -1   89.99   17.40
  -1 -20   1   97.59   17.90
   1 -20  -1   83.19   14.10
  -1 -20   1   88.49   15.50
  -1 -20   1  110.29   20.50
   1  20  -1  104.49   18.60
  -1  20   1  103.39   19.20
   1  20  -1   32.70   74.59
   0 -20  -1  104.79   21.40
   0 -20   1  177.08   20.70
   0 -20   1  158.68   17.30
   0 -20   1  100.89   52.19
   0 -20  -1  151.38   60.09
   0 -20   1  138.59   21.30
   0 -20  -1  183.38   19.70
   0  20   1  138.79   21.80
   0  20  -1   61.79   73.49
   0  20  -1  142.39   21.90
   1 -20   1  193.98   18.50
   1 -20   1  154.68   19.80
   1 -20   1  137.89   45.60
  -1 -20  -1  190.68   21.90
   1 -20   1  169.58   19.50
  -1 -20  -1  183.78   19.80
   1  20   1  206.68   23.30
  -1  20  -1   41.60   65.99
   1  20   1  155.48   80.69
  -1  20  -1  164.58   20.50
  -1 -21   1   40.10   48.80
   1 -21  -1   -7.50    7.60
   1 -21  -1   14.10    5.90
  -1 -21   1   -1.50    6.60
   1 -21  -1    4.10    5.60
  -1 -21   1    7.30   10.60
  -1  21   1   -2.40    6.00
   1  21  -1  -69.79   82.39
   1  21  -1    5.00    8.00
  -1  21   1  -13.10   59.79
   0 -21  -1    6.00    9.90
   0 -21  -1   26.90   11.20
   0 -21  -1   12.60    6.80
   0 -21   1    8.90    8.30
   0 -21   1   14.20   27.40
   0 -21   1    4.40    8.80
   0 -21   1   11.60    6.60
   0 -21  -1   24.60   18.40
   0  21  -1  -81.89   62.49
   0  21   1   16.20    8.00
   0  21  -1    3.70    5.40
   1 -21   1   43.70   45.50
   1 -21   1   45.70   11.60
   1 -21   1   55.29   14.10
  -1 -21  -1   44.10   14.30
   1 -21   1   33.60   10.30
  -1  21  -1  -19.00   71.49
   1  21   1   50.09   12.80
   1  21   1  -70.99   72.89
   3   0  -2   36.40    6.60
  -3   0   2   43.20    6.60
  -3   0   2   33.10    5.30
   3   0  -2   34.20   20.70
   2   0  -2  260.47   35.60
  -2   0   2  273.67   12.50
  -2   0   2  292.67   13.40
  -1   0   2  724.93   24.30
   1   0  -2  713.43   48.80
  -1   0   2  734.63   47.00
   0   0   2 1758.32   79.79
   1   0   2   14.10    9.10
  -1   0  -2   16.90    3.50
   1   0   2   14.40    3.10
  -1   0  -2    3.50    6.90
  -1   0  -2   17.40    1.90
  -2   0  -2   76.39    7.80
  -2   0  -2   83.09   28.50
   2   0   2   96.49   29.30
   2   0   2   65.99    7.50
  -3   0  -2    2.20    2.50
   3   0   2    4.10    3.40
   3   0   2  -28.50   30.80
   3   0   2    7.90   10.00
   4   0   2  137.29   15.80
   4   0   2  211.98   61.59
  -4   0  -2  167.18   15.20
  -4  -1   2  113.39   10.50
   4  -1  -2  134.69   13.10
   4  -1  -2  127.19   10.20
   4  -1  -2  221.98   56.09
  -4  -1   2  139.29   12.10
   4   1  -2  117.59   10.40
  -4   1   2  139.59   10.10
  -4   1   2  107.69    8.70
   3  -1  -2   19.80   17.30
   3   1  -2  -15.40   19.40
  -2  -1   2  251.17   33.00
  -2  -1   2  262.47   13.80
  -2  -1   2  265.57   12.90
   2  -1  -2  276.87   28.60
   2  -1  -2  287.77   34.20
  -2   1   2  255.77   11.50
  -2   1   2  262.67   14.40
   2   1  -2  270.47   39.50
  -1  -1   2  385.46   37.40
   1  -1  -2  419.66   30.40
  -1  -1   2  416.56   15.40
  -1  -1   2  400.46   16.80
  -1   1   2  382.26   13.70
  -1   1   2  425.66   13.70
   1   1  -2  364.46   38.10
  -1   1   2  418.46   28.90
   0  -1  -2  146.19   18.40
   0  -1  -2  158.98    7.70
   0  -1   2  147.19    7.60
   0  -1   2  165.38   22.10
   0   1   2  168.58    7.60
   0   1   2  188.48   20.60
   0   1  -2  164.58    8.00
   0   1  -2  148.49   21.10
   1  -1   2  247.38   31.30
  -1  -1  -2  276.17   10.70
  -1  -1  -2  255.57   31.80
   1  -1   2  243.68   12.40
  -1   1  -2  265.57   13.90
   1   1   2  242.78   13.00
  -1   1  -2  240.28    8.80
   1   1   2  266.17   32.90
  -2  -1  -2    4.80    2.90
   2  -1   2    6.80    2.80
   2   1   2    2.40    1.20
   2   1   2    2.40    2.50
  -2   1  -2   -0.60    9.90
   2   1   2    8.10   14.10
  -2   1  -2    4.80    2.70
  -3  -1  -2   83.39    9.70
   3  -1   2   83.89   43.50
   3  -1   2   88.69   32.10
   3  -1   2  113.19   13.60
   3   1   2   40.00   32.80
   3   1   2   87.89   10.60
   3   1   2   64.39   28.90
  -3   1  -2   78.49   11.00
   4  -1   2   24.40    7.40
  -4  -1  -2    8.60    6.20
   4   1   2   29.80    9.60
  -4   1  -2   22.10    6.70
   4   1   2   39.80   62.19
  -3  -2   2  320.97   17.50
   3  -2  -2  311.87   17.80
  -3  -2   2  327.77   18.50
   3  -2  -2  314.67   39.30
   3  -2  -2  315.67   39.80
   3   2  -2  330.17   18.80
  -3   2   2  290.57   13.30
  -3   2   2  319.07   14.10
   3   2  -2  292.57   68.29
   3   2  -2  291.87   47.90
  -2  -2   2  339.77   17.20
  -2  -2   2  310.37   15.40
   2  -2  -2  323.37   32.10
  -2  -2   2  387.16   42.90
   2  -2  -2  349.96   28.30
  -2   2   2  326.87   12.20
  -2   2   2  328.77   12.30
   2   2  -2  332.47   47.30
  -1  -2   2  145.69   24.70
   1  -2  -2  144.99   12.20
  -1  -2   2  152.58    9.80
  -1  -2   2  147.29    8.30
  -1   2   2  159.58    4.90
   1   2  -2  175.28   28.20
  -1   2   2  160.98   12.20
   0  -2   2   76.79    5.40
   0  -2   2   85.29   17.30
   0  -2  -2   81.19    6.20
   0  -2  -2   75.59   12.90
   0  -2  -2   79.49    5.10
   0   2   2   73.89    6.20
   0   2  -2   79.49    5.60
   0   2  -2   81.49   17.10
   0   2   2   78.59   13.50
  -1  -2  -2  330.87   36.90
   1  -2   2  318.87   36.50
   1  -2   2  329.27   14.80
  -1  -2  -2  339.27   16.10
  -1  -2  -2  332.27   13.70
   1   2   2  351.56   16.40
   1   2   2  342.17   38.70
  -1   2  -2  322.17   11.00
   1   2   2  323.57   14.10
  -2  -2  -2  317.07   17.70
   2  -2   2  304.67   41.40
   2  -2   2  279.47   15.70
  -2   2  -2  293.77   15.90
   2   2   2  329.27   46.60
  -2   2  -2  317.57   41.00
   2   2   2  295.07   13.40
   2   2   2  257.47   40.90
   2   2   2  278.37   17.50
   3  -2   2   67.29   29.20
  -3  -2  -2    5.30    4.80
   3  -2   2   25.60   19.10
   3   2   2   41.90   16.30
   3   2   2   22.90    6.40
   3   2   2  -18.80   21.30
  -3   2  -2   16.80    5.10
   4  -3  -2    6.60   45.30
   4  -3  -2   16.20    2.80
  -4  -3   2   33.50    6.70
  -4  -3   2   28.60    6.80
   4  -3  -2   13.60    4.50
   4   3  -2   28.20    6.40
   4   3  -2   44.50   46.30
   3  -3  -2  145.29   11.20
  -3  -3   2  142.29   11.50
   3  -3  -2  183.78   25.60
  -3  -3   2  151.18   12.60
   3   3  -2  156.48   52.49
   3   3  -2  143.29   12.50
  -3   3   2  141.99    7.00
  -3   3   2  133.39    7.00
   3   3  -2  162.48   46.70
  -2  -3   2   27.50    5.20
   2  -3  -2   36.50    6.30
  -2  -3   2   32.80    6.30
  -2  -3   2   45.10   17.40
  -2   3   2   26.30    1.70
  -2   3   2   34.80    1.90
   2   3  -2   21.40   13.70
   2   3  -2   35.60    6.50
  -1  -3   2  873.51   68.19
   1  -3  -2  879.01   35.00
  -1  -3   2  823.42   29.00
  -1  -3   2  834.22   31.80
   1   3  -2  735.03   65.19
   0  -3  -2  573.44   38.10
   0  -3   2  565.74   20.90
   0  -3  -2  571.24   20.30
   0  -3  -2  580.44   22.50
   0  -3   2  547.05   49.20
   0   3  -2  609.94   21.20
   0   3   2  588.44   39.70
   0   3  -2  543.85   49.40
   0   3   2  535.55   22.20
   0   3   2  578.34   20.40
  -1  -3  -2  516.65   20.10
  -1  -3  -2  532.15   22.30
   1  -3   2  498.15   20.40
   1  -3   2  518.95   49.70
  -1   3  -2  493.25   45.90
   1   3   2  492.55   20.40
  -1   3  -2  508.65   16.90
   1   3   2  523.55   49.70
   1   3   2  515.65   22.30
  -1   3  -2  532.45   20.50
  -2  -3  -2  125.49   11.00
   2  -3   2  191.58   32.80
   2  -3   2  120.59    9.50
   2   3   2  110.59    8.30
   2   3   2  181.38   45.80
   2   3   2  170.28   44.60
  -2   3  -2  120.99    9.50
   2   3   2  114.39   11.20
  -2   3  -2  144.59   35.80
  -3  -3  -2  572.84   29.40
   3  -3   2  519.55   72.19
   3  -3   2  485.45   28.30
   3   3   2  556.14   74.19
  -3   3  -2  542.25   26.00
   3   3   2  507.25   21.30
   3   3   2  545.25   30.80
   4  -3   2   98.09   55.89
   4  -3   2   26.90    6.90
  -4  -3  -2   18.90    7.70
   4   3   2   26.10    9.40
  -4   3  -2   15.30    5.50
   4   3   2  -73.19   72.19
  -4  -4   2    0.10    3.60
   4  -4  -2   -1.80    1.10
   4  -4  -2    1.30    1.60
  -4  -4   2    3.70    4.60
   4   4  -2    2.30    4.50
   3  -4  -2  178.58   12.50
  -3  -4   2  194.98   14.20
  -3  -4   2  179.28   14.70
   3   4  -2  174.38   14.40
   3   4  -2  323.47   81.39
   3   4  -2  203.08   61.99
   2  -4  -2  245.28   15.10
  -2  -4   2  330.17   22.70
  -2  -4   2  297.07   43.30
  -2  -4   2  279.37   17.10
   2   4  -2  280.57   47.20
   2   4  -2  258.87   16.40
  -1  -4   2  556.14   56.29
   1  -4  -2  524.55   22.70
  -1  -4   2  514.05   23.80
  -1  -4   2  499.65   20.90
   1   4  -2  542.35   58.99
   1   4  -2  542.25   23.20
   0  -4   2  118.59   24.80
   0  -4   2  126.39    8.00
   0  -4  -2  118.99    7.40
   0   4  -2  107.89    7.30
   0   4  -2  112.29   23.60
   0   4   2  124.99   18.60
   0   4  -2  116.09    7.80
   0   4   2  116.39    8.60
   0   4   2  121.69    7.60
  -1  -4  -2  497.65   21.30
   1  -4   2  508.65   21.00
  -1  -4  -2  503.15   22.90
   1  -4   2  543.55   52.19
   1   4   2  563.24   53.29
   1   4   2  545.65   22.50
  -1   4  -2  549.25   21.30
  -1   4  -2  563.34   51.69
   1   4   2  548.15   51.89
  -1   4  -2  533.45   18.70
   1   4   2  544.05   24.10
   2  -4   2   66.59   31.30
  -2  -4  -2   95.39    8.00
  -2  -4  -2   97.09   10.00
   2  -4   2   91.59    8.20
   2   4   2  102.49   10.70
   2   4   2   77.99   25.60
   2   4   2   90.39    8.80
   2   4   2  132.39   28.20
  -2   4  -2  111.09    8.90
  -2   4  -2  114.19   29.10
   3  -4   2  187.88   47.90
  -3  -4  -2  124.59   13.00
   3  -4   2  101.19   11.20
   3   4   2  161.38   49.60
  -3   4  -2  119.69   10.70
   3   4   2  111.49    9.20
   3   4   2  131.49   14.30
   3   4   2   63.69   37.40
   4   4   2  117.59   69.79
   4  -5  -2   -0.30    0.70
  -4  -5   2    1.90    4.50
  -4  -5   2   -4.00    4.10
   4   5  -2   -2.90    3.40
   4   5  -2  -49.80   53.39
   3  -5  -2  186.88   12.80
  -3  -5   2  209.28   16.70
  -3  -5   2  206.78   15.30
   3   5  -2  182.58   53.09
   3   5  -2  217.58   16.40
   3   5  -2  215.18   64.19
  -2  -5   2    0.20    1.70
  -2  -5   2   -0.10    2.70
  -2  -5   2   -7.30    8.10
   2  -5  -2    3.40    2.40
   2   5  -2    4.90    3.00
   2   5  -2   -1.40    8.30
  -1  -5   2  482.65   20.40
  -1  -5   2  441.66   22.70
   1  -5  -2  424.66   20.60
   1  -5  -2  432.46   14.20
  -1  -5   2  425.76   52.59
   1  -5  -2  499.25   15.00
   1   5  -2  422.46   53.59
   1   5  -2  459.25   21.70
  -1   5   2  480.75   22.70
   0  -5   2 2319.87   70.49
   0  -5  -2 2262.67   72.49
   0  -5   2 2220.18  126.49
   0   5   2 2407.56   74.79
   0   5   2 2334.47  103.49
   0   5  -2 2235.58  127.39
   0   5  -2 2389.16   71.59
   1  -5   2   85.29    7.10
  -1  -5  -2   91.79    8.60
   1  -5   2   92.89   29.20
  -1  -5  -2   88.49    7.90
   1   5   2  115.79   24.00
  -1   5  -2   98.19   21.00
  -1   5  -2   89.29    7.10
  -1   5  -2   85.29    6.10
   1   5   2   80.29    7.80
   1   5   2   94.29    9.00
   1   5   2  110.39   24.00
  -2  -5  -2 1447.76   50.39
  -2  -5  -2 1503.95   55.19
   2  -5   2 1460.95   49.99
   2  -5   2 1425.96  104.09
   2   5   2 1438.66  111.49
  -2   5  -2 1497.25   49.80
   2   5   2 1467.55   50.99
   2   5   2 1513.05  114.89
  -2   5  -2 1538.25   98.39
   2   5   2 1396.46   56.09
   3  -5   2   28.50    8.90
  -3  -5  -2   48.30   10.00
   3  -5   2   79.99   35.50
   3   5   2   84.19   34.80
   3   5   2   36.70   28.60
   3   5   2   46.60   10.90
  -3   5  -2   40.80    7.40
  -3   5  -2   66.59   22.80
   3   5   2   40.50    6.90
   4   5   2  -36.60   67.19
  -4  -6   2   97.09   13.90
  -4  -6   2   86.99   13.40
   4   6  -2  205.38   74.99
   4   6  -2   78.09   12.10
  -3  -6   2   -0.90    2.90
  -3  -6   2    3.80    3.00
   3  -6  -2    4.70    2.70
   3   6  -2    4.10    3.60
  -2  -6   2   80.59    9.80
  -2  -6   2   82.59   27.60
  -2  -6   2   69.49    8.10
   2  -6  -2   82.79    8.30
   2   6  -2   70.09    9.00
   2   6  -2   84.09   65.79
  -1  -6   2   66.99   23.50
  -1  -6   2   75.69    7.40
   1  -6  -2   76.09    4.20
   1  -6  -2   75.69    4.80
  -1  -6   2   78.59    8.80
   1  -6  -2   70.19    7.50
   1   6  -2   66.99    7.80
  -1   6   2   82.99   12.40
   1   6  -2   47.90   22.80
  -1   6   2   57.79    7.20
  -1   6   2   61.09    9.90
   0  -6   2 3706.63  178.98
   0   6  -2 3538.85  178.78
   1  -6   2  123.29   34.20
  -1  -6  -2   92.19    9.10
   1  -6   2  105.19    7.60
   1  -6   2   98.79    7.90
  -1  -6  -2   97.29    8.80
  -1   6  -2  104.79    7.50
  -1   6  -2  124.19   32.40
   1   6   2   99.59    9.80
   1   6   2   83.09   27.30
   1   6   2  114.89    9.70
  -1   6  -2   94.39    7.60
   1   6   2  121.99   34.60
   2  -6   2 1007.10   38.10
   2  -6   2 1069.09   88.99
  -2  -6  -2 1064.39   44.10
  -2  -6  -2 1097.69   40.60
   2   6   2 1041.40   45.60
   2   6   2 1042.10   94.19
   2   6   2 1041.40   96.59
  -2   6  -2 1050.89   38.00
   2   6   2 1031.50   40.50
  -3  -6  -2    5.90    3.70
   3  -6   2   42.20   27.40
   3   6   2    9.50   19.70
   3   6   2   19.20    5.00
  -3   6  -2    7.60    3.90
  -3   6  -2   26.60   19.90
   3   6   2   19.40    7.40
   3   6   2   37.40   29.70
  -4  -6  -2  -10.10    3.90
   4  -6   2   -2.60    4.40
   4  -6   2   97.59   46.90
   4   6   2  -93.29   60.79
  -4   6  -2    0.60    3.40
   4   6   2    1.70    5.60
   4   6   2   -0.80    2.60
   4   7  -2   80.49   56.69
  -3  -7   2  113.59   13.40
   3  -7  -2  126.59   10.60
  -3  -7   2  134.19   13.00
   3   7  -2  123.59   13.40
   3   7  -2  150.08   53.99
   2  -7  -2   -1.20    1.90
  -2  -7   2   -0.20    3.10
  -2  -7   2  -10.20    8.50
  -2  -7   2    0.70    2.50
   2   7  -2   -1.30    2.10
  -1  -7   2   60.09    6.90
  -1  -7   2   62.09   10.10
   1  -7  -2   63.59    4.40
  -1  -7   2   39.30   19.60
   1  -7  -2   64.69    7.60
   1  -7  -2   61.99    5.00
   1   7  -2   82.69   33.30
   1   7  -2   50.39    7.90
  -1   7   2   51.79    8.10
  -1   7   2   62.79   16.80
   0  -7  -2  557.54   23.70
   0  -7   2  510.85   24.20
   0  -7   2  556.04   61.19
   0  -7   2  586.44   23.80
   0  -7  -2  562.34   25.50
   0   7   2  508.75   23.80
   0   7  -2  595.44   24.90
   0   7  -2  542.85   64.69
   0   7  -2  554.84   23.20
   0   7   2  583.44   26.50
   1  -7   2  119.99    9.30
   1  -7   2  128.69    9.30
  -1  -7  -2  127.29   11.30
   1  -7   2  132.99   29.20
  -1  -7  -2  149.09   11.60
   1   7   2  116.69   10.70
   1   7   2  142.09   28.50
   1   7   2  115.79   35.50
  -1   7  -2  145.69   31.60
  -1   7  -2  155.78   10.10
   1   7   2  131.09   12.00
  -1   7  -2  154.58    9.90
  -2  -7  -2    7.10    3.40
   2  -7   2    4.80   14.50
  -2  -7  -2    9.50    3.90
   2  -7   2    8.60    3.10
   2   7   2   56.89   21.60
   2   7   2   14.70    4.70
   2   7   2   14.20   18.30
   2   7   2   10.20    4.80
  -2   7  -2   16.00    4.00
  -2   7  -2    8.80    2.40
  -2   7  -2   33.10   13.80
   3  -7   2   87.39   29.10
  -3  -7  -2    6.30    4.70
   3   7   2  103.29   38.70
   3   7   2    2.50   16.70
   3   7   2    8.70    4.20
   3   7   2    6.30    4.90
  -3   7  -2   -2.10   13.20
   4  -7   2  164.28   56.39
   4   7   2   53.49   73.99
  -4  -8   2  291.17   24.20
  -4  -8   2  301.57   23.10
   4   8  -2  314.97   23.40
   3  -8  -2   93.09    9.00
  -3  -8   2   96.39   11.40
  -3  -8   2   59.79   12.10
   3   8  -2   83.19   13.40
   3   8  -2   49.99   42.90
   2  -8  -2  160.88   12.40
  -2  -8   2  132.09   12.10
  -2  -8   2  147.39   14.60
  -2  -8   2  171.48   46.80
   2   8  -2  156.18   14.20
   2   8  -2  117.39   41.50
   1  -8  -2  243.28   12.00
   1  -8  -2  213.28   10.40
  -1  -8   2  243.78   15.10
  -1  -8   2  234.58   17.60
  -1  -8   2  238.48   44.10
   1  -8  -2  229.58   15.40
  -1   8   2  216.58   29.30
   1   8  -2  237.28   16.30
   1   8  -2  160.58   45.50
  -1   8   2  251.07   16.40
   0  -8   2 2599.04   82.19
   0  -8  -2 2604.54   80.59
   0  -8   2 2535.15  152.98
   0  -8   2 2374.76   78.99
   0  -8  -2 2619.54   82.89
   0   8  -2 2554.24   81.39
   0   8  -2 2368.36  153.98
   0   8   2 2574.54   81.69
   0   8   2 2500.05   83.39
   0   8  -2 2588.64   79.89
   1  -8   2   18.50    4.50
  -1  -8  -2   16.00    5.10
   1  -8   2   24.60   20.60
  -1  -8  -2   21.50    5.70
   1  -8   2   16.50    4.20
  -1   8  -2   16.00    4.20
  -1   8  -2   19.10    4.30
   1   8   2    6.20   10.30
   1   8   2   10.40    4.40
   1   8   2   26.80    6.90
  -1   8  -2   26.70   18.50
   2  -8   2  112.19   36.00
  -2  -8  -2   34.30    8.60
   2  -8   2   34.50    6.20
  -2  -8  -2   29.10    6.80
   2   8   2   29.40    6.50
  -2   8  -2   31.20    5.00
  -2   8  -2   38.60    6.10
   2   8   2   36.70    9.30
   2   8   2   79.69   28.10
  -2   8  -2   37.50   21.50
   2   8   2   34.90   23.80
   4  -8   2   58.79   75.59
   4  -8   2    8.70    5.20
  -4  -8  -2   17.90    7.30
   4   8   2   14.90    5.60
  -4   8  -2   11.60    4.20
   3  -9  -2  398.16   20.70
  -3  -9   2  403.76   27.60
  -3  -9   2  363.26   24.00
   3   9  -2  339.97   24.50
   3   9  -2  305.57   94.19
  -2  -9   2  405.16   24.00
  -2  -9   2  569.14   97.29
  -2  -9   2  474.55   28.80
   2  -9  -2  436.26   23.50
   2   9  -2  498.75   27.70
   2   9  -2  466.85   71.49
  -1  -9   2   98.19   11.60
  -1  -9   2  101.29    9.70
   1  -9  -2  104.99    7.20
   1  -9  -2  107.09    8.10
  -1  -9   2  114.29   11.50
  -1  -9   2  116.39   40.10
   1  -9  -2  101.69   10.40
  -1   9   2  106.99   11.10
   1   9  -2  102.59   10.70
  -1   9   2  117.59   24.00
   1   9  -2  104.09   44.70
   0  -9  -2  161.28   29.20
   0  -9   2  189.58   34.50
   0  -9  -2  144.19   12.40
   0  -9   2  152.38   11.50
   0  -9  -2  158.48   12.00
   0  -9   2  149.79   12.60
   0   9  -2  139.89   11.80
   0   9  -2  147.99   42.00
   0   9   2  157.58   13.90
   0   9   2  170.58   13.90
   0   9  -2  143.79   10.90
   1  -9   2 1219.58   44.60
  -1  -9  -2 1280.27   48.90
   1  -9   2 1183.18  101.19
   1  -9   2 1188.88   45.00
  -1  -9  -2 1277.07   49.70
  -1   9  -2 1288.17  104.09
   1   9   2 1253.47  105.99
  -1   9  -2 1283.37   44.20
  -1   9  -2 1277.07   45.60
   1   9   2 1274.37   49.80
   1   9   2 1215.88   50.59
  -2  -9  -2   76.59   12.60
   2  -9   2   66.19    6.70
   2  -9   2   64.19    7.60
  -2  -9  -2   59.39   10.10
   2  -9   2  130.59   44.00
  -2   9  -2   80.09    7.50
   2   9   2   56.19    9.80
   2   9   2   67.19   26.90
  -2   9  -2   77.39   26.70
   2   9   2   49.70   27.50
   2   9   2   50.99   11.00
  -3  -9  -2   42.00    9.70
   3  -9   2   66.89   42.70
   3  -9   2   43.50    7.50
   3   9   2   40.40   34.80
   3   9   2   14.10   22.90
   3   9   2   45.40   11.20
  -3   9  -2   42.10    6.80
   3   9   2   44.30    9.40
  -3   9  -2   76.29   31.10
   3 -10  -2  234.38   16.10
  -3 -10   2  261.37   20.20
  -3 -10   2  265.37   22.80
   3  10  -2  282.07   22.20
   3  10  -2  167.08   61.19
   2 -10  -2    8.80    1.80
  -2 -10   2    8.50    4.20
   2 -10  -2   10.00    2.00
   2 -10  -2   12.50    5.00
  -2 -10   2   18.80    6.90
  -2 -10   2   -7.30   20.00
   2  10  -2   16.10    5.50
   2  10  -2   -4.70   14.70
   1 -10  -2  662.23   30.80
  -1 -10   2  548.35   30.40
  -1 -10   2  630.04   78.89
  -1 -10   2  584.34   32.90
   1 -10  -2  652.93   24.20
  -1 -10   2  629.14   29.20
   1 -10  -2  631.44   26.00
  -1  10   2  620.24   31.30
   1  10  -2  633.84   31.40
  -1  10   2  602.24   59.69
   1  10  -2  651.53   85.99
   0 -10   2   17.70    4.50
   0 -10  -2   19.70    5.40
   0 -10  -2   12.50    4.70
   0 -10   2   38.80   18.20
   0 -10   2   19.40    5.30
   0 -10  -2   16.30   11.40
   0  10  -2   16.00   20.60
   0  10   2   14.60    5.00
   0  10   2   21.10    6.30
   0  10  -2   19.50    5.40
  -1 -10  -2   31.80    7.60
  -1 -10  -2   36.10    8.20
   1 -10   2   30.50   19.60
   1 -10   2   33.00    6.50
   1 -10   2   34.50    6.50
  -1  10  -2   24.80   24.00
   1  10   2   37.20    8.50
  -1  10  -2   31.10    6.30
   1  10   2   29.90    7.60
   1  10   2   33.40   22.20
  -1  10  -2   21.60    5.00
   2 -10   2  187.78   50.89
   2 -10   2  130.29   10.50
  -2 -10  -2  140.49   15.00
  -2 -10  -2  159.08   14.70
   2 -10   2  131.99   11.20
  -2  10  -2  136.89   10.60
   2  10   2  171.08   31.40
  -2  10  -2  167.78   44.30
   2  10   2  214.38   44.00
   2  10   2  150.58   14.60
  -2  10  -2  150.58   11.60
   2  10   2  173.18   53.59
   3 -10   2   69.79    8.00
  -3 -10  -2   47.60    9.60
   3 -10   2   53.19   45.60
  -3  10  -2  115.69   34.10
   3  10   2   71.49   15.60
   3  10   2   90.69   44.00
   3  10   2   63.39   11.50
  -3 -11   2  261.77   23.60
  -3 -11   2  276.17   21.40
   3 -11  -2  264.37   17.50
   3  11  -2  277.67   23.10
  -2 -11   2   81.09   13.80
   2 -11  -2   87.29   10.20
  -2 -11   2   79.89   12.10
   2 -11  -2   86.19    6.00
  -2 -11   2  126.39   44.50
   2 -11  -2   67.49    5.00
   2  11  -2   99.99   12.50
   2  11  -2   67.29   39.80
   1 -11  -2  200.58   11.80
   1 -11  -2  203.88   13.20
  -1 -11   2  239.08   62.59
  -1 -11   2  195.98   16.90
  -1 -11   2  190.08   14.80
  -1 -11   2  184.88   17.40
   1 -11  -2  219.98   16.60
   1 -11  -2  195.38   30.20
  -1  11   2  172.88   36.50
  -1  11   2  211.28   17.20
   1  11  -2  131.59   50.29
   1  11  -2  194.98   16.20
   0 -11   2   29.80    7.70
   0 -11   2   20.30    6.00
   0 -11  -2   30.50    6.90
   0 -11   2   52.79   18.30
   0 -11  -2   10.50   14.10
   0 -11   2   16.80    4.80
   0 -11  -2   29.60    6.70
   0  11  -2   34.30    7.40
   0  11  -2   38.50   25.60
   0  11   2   30.80    7.50
  -1 -11  -2   10.40    4.90
   1 -11   2    9.90    3.80
   1 -11   2   35.10   21.30
   1 -11   2   12.80    4.50
  -1 -11  -2   12.70    4.90
  -1  11  -2   16.20    4.80
   1  11   2   26.00   19.80
   1  11   2    8.30    4.70
  -1  11  -2    5.30   20.10
   1  11   2   17.60    6.30
  -1  11  -2   13.30    3.90
   2 -11   2   29.80    6.30
   2 -11   2   38.30    7.00
   2 -11   2   22.00   28.10
  -2 -11  -2   31.70   12.80
  -2 -11  -2   42.80    9.60
  -2  11  -2   34.50    6.50
   2  11   2   29.90   20.40
   2  11   2   21.80    9.20
  -2  11  -2   26.90   21.90
   2  11   2   29.10    7.80
  -2  11  -2   24.90    5.50
   2  11   2   20.60   21.40
   3 -11   2  294.47   17.90
   3 -11   2  409.46   58.39
  -3 -11  -2  282.27   24.30
   3  11   2  296.07   27.50
  -3  11  -2  305.37   16.40
   3  11   2  282.67   79.29
   3  11   2  287.87   27.30
   3  11   2  238.18   69.89
  -3 -12   2  117.49   18.30
   3 -12  -2  103.29   11.10
  -3 -12   2  110.79   16.10
   3  12  -2   36.70   35.80
   3  12  -2   76.99   14.00
  -2 -12   2   20.80    8.00
  -2 -12   2    9.50    4.50
  -2 -12   2   31.20   19.50
   2 -12  -2   12.60    2.70
   2 -12  -2   11.10    4.50
   2 -12  -2    9.90    2.90
   2  12  -2   15.10    7.40
  -2  12   2    5.20    4.50
  -2  12   2   19.20    6.80
   2  12  -2   22.80   26.30
   1 -12  -2  863.51   35.10
  -1 -12   2  812.02   42.80
   1 -12  -2  872.41   32.60
  -1 -12   2  845.22   37.80
   1 -12  -2  898.91   40.00
  -1 -12   2  842.62   41.00
  -1 -12   2  844.72   98.99
   1 -12  -2  937.11   71.19
   1  12  -2  891.61   41.20
  -1  12   2  824.72   40.30
  -1  12   2  797.92   78.89
   1  12  -2  668.03   99.29
   0 -12   2    1.80    2.50
   0 -12   2    4.80    2.80
   0 -12  -2    3.20    3.50
   0 -12   2    5.90    4.10
   0 -12  -2   10.10    4.40
   0 -12  -2   10.30    9.50
   0  12  -2    8.20    3.80
   0  12   2    4.80    3.30
   0  12  -2  -12.20   19.90
   1 -12   2   -9.80   17.20
   1 -12   2    9.50    4.30
   1 -12   2   17.50    5.00
  -1 -12  -2   12.50    5.40
  -1 -12  -2   26.40    7.10
  -1  12  -2    7.20    3.30
  -1  12  -2   17.30    5.80
   1  12   2   16.60    6.40
  -1  12  -2   45.00   13.60
   1  12   2   33.00   24.10
   1  12   2    6.20    4.20
   2 -12   2   60.69    9.00
  -2 -12  -2   67.69   12.50
  -2 -12  -2   55.49   11.40
   2 -12   2   58.79   30.20
   2 -12   2   56.29   10.00
   2  12   2   74.49   38.60
  -2  12  -2   68.89    8.70
   2  12   2   88.69   41.50
   2  12   2   52.69   10.60
  -2  12  -2   97.79   31.00
  -2  12  -2   52.39    8.00
   2  12   2   55.29   12.70
   3 -12   2   19.80    5.70
  -3 -12  -2   31.10    9.30
   3 -12   2   52.69   22.30
  -3  12  -2   16.90   21.50
  -3  12  -2   27.60    5.40
   3  12   2   42.90   11.10
   3  12   2   27.20    8.20
  -3 -13   2   76.99   13.60
   3 -13  -2   54.29    9.50
  -3 -13   2   42.70   11.50
   3  13  -2   13.00   26.80
   3  13  -2   44.10   11.50
   2 -13  -2 1160.58   47.70
   2 -13  -2 1016.80   35.80
  -2 -13   2 1048.00   53.19
  -2 -13   2 1104.09   48.60
  -2 -13   2 1116.79  124.79
   2 -13  -2 1095.09   37.70
  -2  13   2 1097.49   57.59
   2  13  -2 1081.89   51.29
  -2  13   2 1001.30   48.30
   2  13  -2 1102.49  136.39
  -2  13   2 1042.80   62.09
   1 -13  -2    1.90    2.80
  -1 -13   2    4.80    2.40
  -1 -13   2   11.50   13.40
   1 -13  -2   11.90    9.40
  -1 -13   2    7.60    4.90
   1 -13  -2    3.00    2.50
   1 -13  -2   -1.50    3.30
  -1 -13   2   11.20    6.10
  -1  13   2    8.20    4.40
  -1  13   2  -12.30   12.40
   1  13  -2    2.80    4.70
   1  13  -2    7.30   20.10
   0 -13   2  271.27   20.30
   0 -13  -2  248.88   18.70
   0 -13  -2  221.38   43.20
   0 -13   2  281.37   56.69
   0 -13  -2  273.27   20.50
   0 -13   2  264.37   18.20
   0 -13  -2  264.37   17.00
   0 -13   2  262.57   21.20
   0  13  -2  269.47   20.00
   0  13  -2  297.87   59.49
   0  13   2  289.07   22.00
   1 -13   2  101.79   10.70
   1 -13   2  114.99   12.40
  -1 -13  -2  111.59   13.20
   1 -13   2  113.69   44.80
   1  13   2  141.59   47.60
  -1  13  -2  138.09   49.40
   1  13   2  120.39   14.50
  -1  13  -2  117.59   12.60
   1  13   2   97.69   15.70
  -2 -13  -2  163.38   17.70
   2 -13   2  143.49   12.40
   2 -13   2  224.78   42.10
   2 -13   2  127.79   12.10
  -2 -13  -2  137.19   15.20
  -2  13  -2  157.98   46.80
   2  13   2  134.09   20.60
   2  13   2  121.29   47.70
  -2  13  -2  116.09   14.70
  -2  13  -2  136.39   13.40
   2  13   2  113.09   16.80
   3 -13   2   24.20   27.70
  -3 -13  -2   15.40    6.70
   3 -13   2    8.20    3.90
  -3  13  -2  -13.60   20.20
   3  13   2  -36.40   44.30
   3  13   2   67.19   41.50
  -3  13  -2   10.60    3.90
   3  13   2    5.60    6.10
  -3 -14   2   48.10   12.10
   3 -14  -2   71.79   11.60
  -3 -14   2   56.09   11.40
   3  14  -2   48.90   12.30
   3  14  -2  -20.20   34.80
  -2 -14   2   99.79   15.50
  -2 -14   2  104.49   17.70
   2 -14  -2   89.79    7.40
  -2 -14   2  199.08   60.29
   2 -14  -2  110.89   13.00
   2 -14  -2   94.59    8.30
  -2  14   2   97.99   18.00
  -2  14   2  100.89   26.00
   2  14  -2   94.79   15.80
   2  14  -2  141.09   60.49
  -2  14   2   97.59   15.10
  -1 -14   2   40.20    9.20
   1 -14  -2   31.90    7.10
  -1 -14   2   37.00    9.40
  -1 -14   2   29.20   10.00
  -1 -14   2   68.29   25.70
   1 -14  -2   44.20   21.10
   1 -14  -2   49.10    7.80
   1 -14  -2   42.00    9.30
   1  14  -2   44.60    9.90
  -1  14   2   44.90   10.30
  -1  14   2   65.29   31.20
   1  14  -2   53.39   39.10
   0 -14   2  203.18   18.50
   0 -14  -2  194.78   42.20
   0 -14  -2  200.78   16.90
   0 -14  -2  205.88   21.90
   0 -14   2  188.58   15.70
   0 -14   2  260.37   50.99
   0 -14   2  182.68   18.20
   0  14   2  204.48   19.20
   0  14  -2  143.49   59.69
   0  14  -2  194.88   17.40
   1 -14   2   -8.00   20.50
  -1 -14  -2    1.50    2.00
   1 -14   2    9.00    4.50
   1 -14   2    5.30    3.50
  -1 -14  -2    3.10    3.60
  -1  14  -2   -0.40    2.50
   1  14   2    0.60    3.60
  -1  14  -2    1.20   21.90
   1  14   2   -8.00   18.50
   1  14   2    0.10    4.50
   2 -14   2  249.97   18.20
   2 -14   2  279.57   18.50
   2 -14   2  323.17   73.99
  -2 -14  -2  266.17   24.00
  -2 -14  -2  284.47   23.40
   2  14   2  312.67   89.79
  -2  14  -2  256.47   52.49
   2  14   2  259.37   25.00
   2  14   2  284.67   24.00
   2  14   2  288.27   86.89
  -2  14  -2  288.77   20.80
  -3 -14  -2    7.60    6.00
   3 -14   2   -4.90    3.10
   3  14   2    1.70    5.70
   3  14   2    4.00    9.00
   3  14   2   -1.50   45.20
   3 -15  -2   86.19   13.30
  -3 -15   2   61.29   13.30
  -3 -15   2   34.20   10.70
   3  15  -2   52.49   13.70
  -2 -15   2   -7.30    5.20
  -2 -15   2   35.10   28.50
  -2 -15   2    2.10    4.00
   2 -15  -2   -2.50    1.80
   2 -15  -2   -2.10    3.60
   2 -15  -2   -1.50    2.20
  -2  15   2    6.10   10.50
   2  15  -2   -7.20    4.00
   2  15  -2   19.80   35.00
  -2  15   2   13.00   16.00
  -1 -15   2  260.17   22.50
   1 -15  -2  289.47   22.50
   1 -15  -2  285.77   19.30
  -1 -15   2  297.07   63.49
  -1 -15   2  273.17   20.60
  -1 -15   2  263.57   25.00
   1 -15  -2  292.57   17.50
  -1  15   2  308.27   50.49
   1  15  -2  336.17   94.09
   1  15  -2  253.07   22.00
   0 -15   2  527.05   33.50
   0 -15  -2  488.45   29.60
   0 -15   2  500.25   81.69
   0 -15  -2  555.64   73.09
   0 -15  -2  526.95   32.20
   0 -15  -2  508.85   27.10
   0 -15   2  521.95   28.80
   0 -15   2  564.04   32.90
   0  15   2  556.54   34.10
   0  15  -2  551.34   91.79
   0  15  -2  470.15   35.30
  -1 -15  -2  100.49   16.00
   1 -15   2  108.59   16.20
   1 -15   2  107.69   12.00
  -1 -15  -2  106.69   13.40
   1 -15   2   99.49   12.60
   1 -15   2  108.89   40.50
   1  15   2  109.19   17.30
  -1  15  -2  130.39   44.40
  -1  15  -2   79.19   13.50
   1  15   2   91.19   48.00
  -2 -15  -2   16.10    7.50
  -2 -15  -2   29.60    9.20
   2 -15   2   25.10    6.50
   2 -15   2   19.80    6.00
   2  15   2    8.50    7.80
  -2  15  -2   19.20    6.70
   2  15   2   22.40   22.90
   2  15   2  -24.00   23.80
  -2  15  -2   17.90   27.70
   2  15   2   17.30    7.10
   3 -15   2    3.40    4.20
  -3 -15  -2    3.60    7.80
   3  15   2   -1.30   54.89
  -3  15  -2   -5.60   25.50
   3  15   2   14.10    7.30
   3  15   2  -75.49   44.10
   3  15   2    5.60    8.50
  -2 -16   2   -5.60    4.20
   2 -16  -2    1.10    2.20
   2 -16  -2    5.00    4.50
  -2 -16   2    3.00    6.00
   2 -16  -2   -1.10    2.30
  -2  16   2  -12.80   11.50
  -2  16   2    8.00    5.40
   2  16  -2   -6.10    5.60
  -2  16   2   16.10   17.60
   2  16  -2  -28.00   32.30
  -1 -16   2   -0.90    3.90
   1 -16  -2    3.20    2.70
  -1 -16   2   21.20    8.50
  -1 -16   2   30.20   28.10
   1 -16  -2    9.80    3.50
  -1 -16   2    2.30    3.80
   1 -16  -2    9.70    4.40
   1  16  -2    9.10    6.00
  -1  16   2    7.30   25.80
  -1  16   2    8.40    5.50
   1  16  -2    4.10   34.80
   0 -16   2   32.60    8.10
   0 -16  -2   31.90    7.50
   0 -16   2   46.00   11.90
   0 -16   2   45.00   11.00
   0 -16  -2   55.59   11.80
   0 -16  -2   44.80    9.90
   0 -16  -2   21.70   24.10
   0  16   2   31.40    9.20
   0  16  -2   56.29   41.40
   0  16  -2   37.10    9.50
   0  16   2  -19.10   27.00
   1 -16   2   92.29   14.40
   1 -16   2   75.79   14.30
   1 -16   2   97.69   11.50
  -1 -16  -2  115.89   18.00
   1 -16   2  109.19   44.00
  -1 -16  -2   92.89   11.60
  -1 -16  -2   94.39   15.50
  -1  16  -2   89.29   43.50
   1  16   2   85.29   15.00
   1  16   2   57.29   53.99
  -1  16  -2  100.89   15.30
   2 -16   2   98.89   11.20
  -2 -16  -2   91.49   16.70
  -2 -16  -2   96.79   17.40
   2 -16   2   91.09   17.00
  -2  16  -2  100.49   14.80
   2  16   2  169.98   61.29
   2  16   2   91.89   16.60
  -2  16  -2  107.59   47.80
   2 -17  -2   85.09    9.30
   2 -17  -2   77.79    8.10
  -2 -17   2   87.99   15.40
  -2 -17   2   96.89   33.30
  -2 -17   2   81.69   16.70
   2 -17  -2   93.39   15.50
   2  17  -2   74.09   15.70
  -2  17   2   68.79   14.20
   2  17  -2   75.59   70.19
   1 -17  -2   14.30    4.80
  -1 -17   2    6.90    5.40
  -1 -17   2    2.80    3.80
  -1 -17   2    6.60    6.30
   1 -17  -2   10.40    5.80
  -1 -17   2   44.20   26.70
   1 -17  -2   11.60    5.50
   1  17  -2    1.10    5.90
  -1  17   2   47.70   29.90
   1  17  -2  -15.40   32.80
  -1  17   2    6.40    6.10
   0 -17  -2  311.07   23.40
   0 -17   2  258.87   20.40
   0 -17   2  228.48   21.90
   0 -17   2  255.37   24.00
   0 -17  -2  292.47   24.10
   0 -17  -2  252.37   19.10
   0  17   2  171.78   72.39
   0  17  -2  192.88   75.39
   0  17  -2  240.58   21.60
   0  17   2  243.88   23.80
   1 -17   2   78.69   14.10
   1 -17   2   67.79   11.90
  -1 -17  -2   54.89   11.50
  -1 -17  -2   60.89   13.50
  -1 -17  -2   59.09   13.10
   1 -17   2  117.09   42.30
   1 -17   2   49.99   11.10
   1  17   2   44.40   43.80
  -1  17  -2   84.49   49.40
  -1  17  -2   51.29   12.00
   1  17   2   49.30   11.60
   2 -17   2   74.29   12.20
   2 -17   2   83.49   13.80
  -2 -17  -2   44.00   10.60
   2 -17   2   61.39   11.00
  -2 -17  -2   50.39   12.70
  -2 -17  -2   51.69   14.30
   2  17   2   34.90   56.49
  -2  17  -2   56.49   12.00
  -2  17  -2   89.29   43.50
   2  17   2   69.29   15.80
  -2 -18   2   55.09   16.10
  -2 -18   2   71.49   44.00
   2 -18  -2   66.39    9.40
  -2 -18   2   35.00   11.50
   2 -18  -2   53.99   12.80
   2 -18  -2   38.80    6.60
   2  18  -2   29.30   11.40
   2  18  -2  111.29   70.09
  -2  18   2   32.10   11.00
  -2  18   2   92.49   25.20
   1 -18  -2   25.60    7.20
  -1 -18   2   26.90   10.80
   1 -18  -2   18.80    8.30
  -1 -18   2   10.50    8.80
   1 -18  -2   34.00    8.60
  -1 -18   2   40.70   31.40
  -1 -18   2   17.40    6.00
  -1  18   2   11.80    7.90
   1  18  -2   10.70    7.90
  -1  18   2   59.09   26.20
   1  18  -2   51.59   53.89
   0 -18   2   31.80   11.20
   0 -18   2   50.89   12.90
   0 -18  -2   60.19   11.00
   0 -18  -2   43.70   10.90
   0 -18  -2   58.29   12.60
   0 -18   2   46.30    9.90
   0  18   2   43.80   12.50
   0  18  -2   49.60   11.70
   0  18   2   93.49   35.10
   0  18  -2   26.50   40.10
   1 -18   2  147.79   60.09
   1 -18   2  131.09   19.80
   1 -18   2  182.58   17.00
   1 -18   2  184.48   18.90
  -1 -18  -2  148.29   18.00
  -1 -18  -2  143.09   16.00
  -1 -18  -2  144.59   18.20
   1  18   2  120.79   64.89
   1  18   2  155.78   19.40
  -1  18  -2  113.49   17.40
  -1  18  -2  194.68   69.09
   2 -18   2   -1.20    5.70
   2 -18   2    8.70    5.10
  -2 -18  -2    4.10    5.10
  -2 -18  -2    1.40    5.80
   2 -18   2   34.70   32.60
  -2 -18  -2  -14.70    5.40
   2 -18   2    4.50    4.20
   2  18   2  -19.70   37.20
  -2  18  -2    5.50   42.50
   2  18   2  -11.90   42.10
  -2  18  -2    2.10    6.30
   2  18   2   -1.80    9.10
   2 -19  -2   -3.60    5.40
   2 -19  -2    7.30    4.60
  -2 -19   2    7.00    7.70
  -2 -19   2   10.90    8.60
  -2 -19   2   46.70   43.30
   2 -19  -2   -0.60    3.60
   2  19  -2   -8.60    6.80
  -2  19   2  -13.80    5.80
  -2  19   2   -2.00   29.10
   2  19  -2  -93.69   59.69
  -1 -19   2   77.39   34.90
   1 -19  -2    2.20    4.70
  -1 -19   2   -3.00    9.50
   1 -19  -2   -3.80    6.50
  -1 -19   2    7.00    6.10
   1 -19  -2   -8.70    3.20
  -1 -19   2    6.70    6.30
   1  19  -2  -63.09   48.10
  -1  19   2  -13.10   33.50
   1  19  -2   -1.40    6.30
  -1  19   2    4.30    5.20
   0 -19  -2    4.60    5.40
   0 -19   2    6.40    4.80
   0 -19  -2   14.20    7.10
   0 -19   2    1.50    4.00
   0 -19  -2    9.90    5.60
   0  19   2   33.00   32.80
   0  19   2    6.10    5.90
   0  19  -2    8.80    6.70
   0  19  -2  -23.60   35.00
  -1 -19  -2    3.30    8.70
   1 -19   2   -2.50    4.60
  -1 -19  -2    4.90    5.90
   1 -19   2   -5.00    3.90
   1 -19   2   -4.40    4.40
  -1  19  -2   -6.10    4.50
   1  19   2   -0.90    4.20
  -1  19  -2  -17.80   37.60
   2 -19   2  142.09   16.60
   2 -19   2  131.09   19.00
  -2 -19  -2  150.78   23.40
  -2 -19  -2  114.89   18.20
  -2 -19  -2   47.70   21.80
   2 -19   2  135.49   14.60
   2  19   2   90.29   94.29
   2  19   2  132.59   21.70
  -2  19  -2  133.09   19.10
  -2  19  -2  181.98   74.09
   2  19   2  277.37   76.19
  -1 -20   2    8.90    7.90
  -1 -20   2   34.60   41.60
   1 -20  -2    6.90    4.80
  -1 -20   2   13.30    6.90
   1 -20  -2    6.30    5.30
  -1  20   2   14.80    9.60
   1  20  -2   14.70    8.60
   1  20  -2  -35.50   60.39
   0 -20   2  114.09   20.30
   0 -20  -2   52.29   15.40
   0 -20   2   55.69   12.20
   0 -20  -2   86.59   14.20
   0 -20   2  129.39   54.49
   0 -20  -2   67.49   14.10
   0  20  -2  -13.70   70.29
   0  20   2  121.09   20.30
   0  20   2   47.00   51.09
   0  20  -2   91.99   16.60
  -1 -20  -2   44.30   14.70
  -1 -20  -2   81.49   14.40
   1 -20   2   68.99   14.10
   1 -20   2   86.79   15.60
   1 -20   2  145.49   50.69
   1 -20   2   94.09   15.00
  -1  20  -2   61.19   13.60
   1  20   2   37.90   11.60
  -1  20  -2   48.70   63.89
   1  20   2   76.59   69.49
   1 -21  -2   17.70    8.30
  -1 -21   2  174.48   72.49
   1 -21  -2   29.30   10.60
  -1 -21   2    2.90    9.70
   1 -21  -2   15.20    8.00
   1  21  -2   20.20   88.29
  -1  21   2  -67.79   57.89
  -1  21   2    7.50    9.20
   0 -21  -2  109.49   18.30
   0 -21   2  127.39   21.50
   0 -21   2   98.99   16.30
   0 -21   2   84.29   17.50
   0 -21  -2   90.09   18.90
   0 -21  -2   88.69   15.40
   0  21   2  109.49   18.60
   0  21  -2   71.79   89.79
   0  21  -2   96.09   18.80
   0  21   2   30.60   71.69
   1 -21   2   95.99   18.40
   1 -21   2   96.89   20.50
   1 -21   2   79.29   15.90
  -1 -21  -2   86.39   17.10
  -1  21  -2  107.29   29.70
   3   0  -3   20.50   15.40
   3   0  -3   38.40   17.10
  -2   0   3   -2.00    5.10
  -2   0   3    1.30    1.50
   1   0  -3    4.80    7.00
  -1   0   3    2.90    5.50
   0   0  -3   11.20    6.20
   0   0   3    0.40    1.40
   0   0  -3   -0.90    1.10
   1   0   3   -0.90    1.20
  -1   0  -3    2.50    6.30
   1   0   3    4.90    6.20
   2   0   3   15.80   11.70
   3   0   3   -4.90   10.80
  -3   0  -3    3.50    3.20
   3   0   3   -0.50    2.80
   3   0   3  -24.30   25.40
  -4   0  -3    3.60    4.60
   4   0   3    2.80    5.80
   4   0   3  -59.79   50.49
   4   1  -3   -3.40   44.70
   3  -1  -3  249.38   36.90
  -3  -1   3  212.88   13.40
  -3  -1   3  194.08   12.30
   3  -1  -3  189.68   32.60
  -3   1   3  199.18   10.90
  -3   1   3  211.68   10.80
   3   1  -3  225.88   43.70
   3   1  -3  204.68   15.20
  -2  -1   3   97.79   25.50
  -2  -1   3  102.59    8.20
  -2  -1   3   96.19    7.20
   2  -1  -3   96.69   20.90
   2   1  -3  109.49   35.20
  -2   1   3  105.29    6.40
  -2   1   3  107.59    6.20
  -2   1   3   98.89   17.20
  -1  -1   3  269.47   34.60
   1  -1  -3  242.58   26.60
   1  -1  -3  256.07   10.30
  -1  -1   3  263.27   11.90
   1   1  -3  274.67   35.60
  -1   1   3  244.18   27.60
   1   1  -3  280.47   12.00
   0  -1   3 1659.13   93.29
   0  -1  -3 1768.92   87.59
   0  -1   3 1763.52   52.89
   0  -1  -3 1575.14   51.69
   0   1   3 1669.73   86.59
   0   1  -3 1583.14   52.19
   0   1   3 1919.61   52.89
  -1  -1  -3  825.22   66.29
   1  -1   3  926.11   71.79
   1  -1   3  942.51   33.70
  -1  -1  -3  877.91   30.50
  -1  -1  -3  913.51   33.70
   1   1   3  974.60   74.29
  -1   1  -3  932.61   70.99
   1   1   3  876.21   33.20
  -1   1  -3  906.61   33.10
   2  -1   3   52.69    8.10
  -2  -1  -3   66.49   26.90
  -2  -1  -3   51.09    8.10
   2  -1   3   75.39   32.10
  -2  -1  -3   53.19    4.10
   2   1   3   86.89   26.60
  -2   1  -3   49.10   22.10
  -2   1  -3   57.89    6.90
   2   1   3   55.89    8.80
  -3  -1  -3    1.00    2.90
   3  -1   3    5.30    3.80
   3  -1   3   21.70   29.20
   3   1   3    4.20   10.30
  -3   1  -3    6.70    4.80
   3   1   3   -0.20   25.40
   3   1   3    5.00    3.80
   4  -1   3   43.50   10.10
   4  -1   3  169.98   64.29
  -4  -1  -3   23.90    7.90
  -4   1  -3   49.20   10.20
   4   1   3  -15.60   55.09
   4   1   3   46.50   13.90
   4  -2  -3   42.70    8.20
   4  -2  -3   78.09   57.19
  -4  -2   3   58.79    8.70
  -4  -2   3   47.80    7.70
   4  -2  -3   42.50    7.20
   4   2  -3   46.70    9.00
  -3  -2   3   23.30    5.30
   3  -2  -3   49.90   20.20
  -3  -2   3   26.30    6.00
   3   2  -3   25.20    6.40
  -3   2   3   28.10    3.10
  -3   2   3   32.00    3.20
   3   2  -3   70.59   27.00
   3   2  -3   14.40   25.90
   2  -2  -3  328.77   26.10
  -2  -2   3  325.87   41.40
  -2  -2   3  304.97   16.50
   2  -2  -3  284.07   29.50
  -2  -2   3  304.87   15.10
  -2   2   3  314.87   11.00
  -2   2   3  285.27   10.70
  -1  -2   3   14.90    3.00
   1  -2  -3   21.10    2.10
  -1  -2   3   15.60   11.70
   1  -2  -3   15.40    6.40
   1   2  -3   30.00   17.50
  -1   2   3   20.80    2.00
  -1   2   3   19.90    8.60
   1   2  -3   22.70    3.80
   0  -2  -3   10.40    3.10
   0  -2   3   14.30    3.00
   0  -2  -3    7.70    2.10
   0  -2  -3   11.50    7.50
   0  -2   3   14.30   11.60
   0   2   3    8.90    2.50
   0   2  -3    6.80    2.30
   0   2   3   11.50    6.40
   0   2  -3    1.70    5.90
   1  -2   3 1296.57   43.80
  -1  -2  -3 1337.27   86.39
   1  -2   3 1233.48   87.49
  -1  -2  -3 1283.17   44.50
  -1  -2  -3 1328.47   42.20
   1   2   3 1326.47   89.69
  -1   2  -3 1304.27   43.90
  -1   2  -3 1306.07   86.99
   1   2   3 1196.68   42.20
   1   2   3 1267.77   44.40
   2  -2   3  163.88   12.10
  -2  -2  -3  150.68   32.70
  -2  -2  -3  156.68   12.70
  -2  -2  -3  148.89    8.60
   2  -2   3  158.88   34.90
   2   2   3  155.38   33.60
   2   2   3  155.08   12.90
  -2   2  -3  154.28   31.20
   2   2   3  152.98    9.30
  -2   2  -3  154.78   11.70
  -3  -2  -3    5.00    4.30
   3  -2   3    5.90    3.10
   3   2   3   15.30   29.30
   3   2   3    3.00   15.60
  -4  -2  -3   10.60    6.30
   4  -2   3  131.29   60.59
   4  -2   3   -0.30    5.80
  -4   2  -3   22.70    7.20
   4  -3  -3   34.80    6.20
  -4  -3   3   47.70    8.80
  -4  -3   3   50.89    8.70
   4  -3  -3   31.60    6.30
   4   3  -3   50.89    9.60
   3  -3  -3   26.00    6.80
  -3  -3   3   34.00    7.00
   3  -3  -3   44.50   13.50
  -3  -3   3   19.00    4.70
   3   3  -3   28.60    7.10
   3   3  -3    4.10   24.40
  -2  -3   3  183.58   11.90
  -2  -3   3  197.68   13.80
  -2  -3   3  262.07   37.30
   2   3  -3  242.48   45.00
   1  -3  -3 1729.73   50.59
   1  -3  -3 1752.72   59.79
  -1  -3   3 1866.41   56.59
   1  -3  -3 1746.83   66.59
  -1  -3   3 1731.43  109.79
  -1   3   3 1834.12   73.49
   1   3  -3 1793.82   56.39
   1   3  -3 1739.23  112.59
  -1   3   3 1817.32   50.29
   0  -3  -3    3.50    1.20
   0  -3   3    2.80    1.70
   0  -3  -3   -3.90    3.10
   0  -3   3   -7.80    5.60
   0  -3  -3    2.30    1.80
   0   3  -3    3.70    2.00
   0   3  -3    9.10    8.00
   0   3   3    2.10    6.40
   0   3   3    1.50    1.10
   1  -3   3  745.43   67.89
  -1  -3  -3  783.52   30.50
  -1  -3  -3  775.12   29.20
  -1  -3  -3  713.23   67.69
   1  -3   3  774.22   29.30
   1   3   3  752.02   66.09
  -1   3  -3  712.73   28.50
   1   3   3  695.23   28.50
   1   3   3  853.51   31.40
   2  -3   3  204.98   13.70
  -2  -3  -3  215.28   15.40
   2  -3   3  177.28   48.70
  -2  -3  -3  205.78   11.80
   2   3   3  199.18   12.00
  -2   3  -3  216.88   38.80
  -2   3  -3  202.98   13.70
   2   3   3  199.48   15.20
   2   3   3  235.38   41.30
   3  -3   3   17.00    5.40
   3  -3   3  -31.80   25.90
  -3  -3  -3   26.00    7.00
  -3   3  -3   22.00   20.60
   3   3   3   -0.60   12.40
   3   3   3   27.00    7.70
   3   3   3   36.20   25.10
  -4  -3  -3   26.70   11.10
   4  -3   3   13.00    5.80
   4  -3   3   69.39   54.49
  -4   3  -3   13.70    6.00
   4   3   3   -0.50   55.49
   4   3   3    6.00    7.30
   4   4  -3  148.89   53.69
  -3  -4   3   59.99    8.90
  -3  -4   3   64.09   13.60
   3  -4  -3   40.50    8.10
   3   4  -3   41.00   24.70
   3   4  -3   53.49    9.70
  -2  -4   3  922.31   37.50
  -2  -4   3  876.81   38.60
   2  -4  -3  901.21   37.00
  -2  -4   3  864.21   79.09
   2   4  -3  840.82   36.90
   2   4  -3  925.41   90.19
   1  -4  -3  131.69    5.80
   1  -4  -3  130.89   10.90
  -1  -4   3  156.48   31.70
  -1  -4   3  152.08    9.80
  -1   4   3  144.09   15.30
   1   4  -3  159.08   43.50
  -1   4   3  134.99    5.60
   1   4  -3  142.99    9.60
   0  -4   3  472.95   53.19
   0  -4   3  450.85   19.40
   0  -4  -3  478.55   40.20
   0  -4  -3  437.16   18.50
   0   4   3  425.56   24.10
   0   4   3  469.85   18.80
   0   4   3  439.76   40.50
   0   4  -3  473.65   19.50
   0   4  -3  460.45   52.69
  -1  -4  -3   -0.90    1.00
   1  -4   3    0.40    1.30
  -1  -4  -3    0.30    1.30
   1  -4   3   15.00    8.90
  -1  -4  -3   -6.20    6.40
  -1   4  -3    0.50    0.90
  -1   4  -3    0.90    1.50
   1   4   3   -0.70    2.10
  -2  -4  -3  166.98   13.70
  -2  -4  -3  171.28   11.00
   2  -4   3  155.18   11.80
   2  -4   3  204.38   37.50
   2   4   3  155.58   11.20
   2   4   3  110.79   31.60
   2   4   3  231.28   59.99
  -2   4  -3  178.98   12.50
   2   4   3  145.29   13.40
  -2   4  -3  180.38   33.80
   3  -4   3   72.09   46.90
   3  -4   3  112.59   11.20
  -3  -4  -3   93.79   11.50
   3   4   3  123.59   39.90
  -3   4  -3  130.29   39.00
   3   4   3  127.49   44.10
   3   4   3  100.59   12.80
   4  -4   3  -10.00    3.80
  -4  -4  -3    1.10    5.10
   4  -4   3  138.09   80.09
  -4   4  -3   -1.20    4.30
   4   4   3    6.80   72.29
   4   4   3    0.30    6.30
   3  -5  -3  291.57   18.60
  -3  -5   3  303.47   20.50
  -3  -5   3  284.07   18.40
   3   5  -3  349.67   64.99
   3   5  -3  278.57   20.20
  -2  -5   3  615.44   27.70
  -2  -5   3  653.03   31.20
   2  -5  -3  606.14   29.30
  -2  -5   3  713.03   74.39
   2   5  -3  711.93   82.29
   2   5  -3  675.53   31.30
  -1  -5   3   69.29   27.90
  -1  -5   3   69.89    6.90
   1  -5  -3   78.29    8.40
  -1   5   3   78.89   11.90
   1   5  -3   66.89   24.90
  -1   5   3   81.09    4.50
   1   5  -3   75.39    7.90
  -1   5   3   80.49   10.00
   1   5  -3   76.49    8.20
   0  -5  -3  149.79    9.60
   0  -5   3  171.88   10.70
   0  -5   3  166.68   32.40
   0   5  -3  155.48   10.10
   0   5   3  139.39   23.40
   0   5  -3  170.38   11.00
   0   5  -3  153.58   31.60
   0   5   3  157.18    9.90
   1  -5   3 2551.44  145.09
  -1  -5  -3 2591.64   82.49
  -1  -5  -3 2520.65   80.29
   1  -5   3 2490.15   79.59
  -1   5  -3 2453.25   76.09
   1   5   3 2520.65  138.09
   1   5   3 2431.56   81.19
   1   5   3 2866.91   84.19
  -1   5  -3 2650.33   79.89
  -2  -5  -3  102.09   11.00
   2  -5   3  160.28   32.30
  -2  -5  -3   90.39    8.50
   2  -5   3   94.29    9.00
   2   5   3   79.99   12.10
  -2   5  -3   95.29    8.90
   2   5   3  141.99   44.40
   2   5   3  122.69   39.00
   2   5   3   91.19    8.90
  -2   5  -3   91.19   28.30
  -3  -5  -3   28.00    7.30
   3  -5   3   75.39   36.90
   3  -5   3   24.20    5.60
   3   5   3   69.19   32.00
  -3   5  -3   22.20    7.40
   3   5   3   23.60    5.50
   3   5   3   28.90    8.50
  -3   5  -3   14.00   19.10
   3   5   3   17.30   18.30
   4   5   3   58.29   75.49
  -4  -6   3   24.10    8.10
   4  -6  -3   26.50    4.90
  -4  -6   3   15.90    6.20
   4   6  -3   77.19   60.69
   4   6  -3   35.10    9.20
  -3  -6   3   32.50    8.10
  -3  -6   3   43.40    8.60
   3  -6  -3   43.60    8.10
   3   6  -3   -3.80   22.20
   3   6  -3   41.50    9.00
  -2  -6   3   32.10    6.60
  -2  -6   3   14.20   20.50
   2  -6  -3   53.19    8.80
  -2  -6   3   44.40    8.70
   2   6  -3   11.00   19.70
   2   6  -3   37.60    7.90
  -1  -6   3  510.65   26.90
   1  -6  -3  567.34   26.40
  -1  -6   3  591.54   69.09
   1  -6  -3  529.45   18.30
  -1  -6   3  583.34   24.60
   1   6  -3  525.45   25.90
   1   6  -3  476.35   66.19
  -1   6   3  515.35   34.00
  -1   6   3  562.24   35.00
   0  -6   3    6.10    6.10
   0  -6  -3   18.70    4.70
   0  -6  -3   14.50    3.40
   0  -6   3   23.40    5.00
   0   6   3   21.30    4.60
   0   6   3    7.80    9.00
   0   6  -3   13.70    3.80
   0   6   3   13.20   15.20
   0   6  -3    4.30   13.20
   0   6   3   15.00    4.50
   0   6  -3   15.10    4.00
  -1  -6  -3  945.21   38.30
   1  -6   3 1015.20   87.59
   1  -6   3  932.91   36.00
  -1  -6  -3  973.80   37.40
  -1   6  -3 1006.30   34.10
   1   6   3 1000.40   82.19
   1   6   3  965.70   80.59
   1   6   3  955.00   39.20
  -1   6  -3  922.81   35.40
   1   6   3  959.10   38.40
   2  -6   3  107.09   35.00
  -2  -6  -3   91.09    9.10
   2  -6   3  100.19    9.40
  -2  -6  -3   83.19   10.00
  -2   6  -3  114.09   37.60
   2   6   3   81.49    9.00
   2   6   3   85.59   33.30
   2   6   3  154.58   33.60
  -2   6  -3   90.09    8.80
  -2   6  -3   97.09    5.30
   2   6   3   94.39   13.80
   3  -6   3   29.10    6.60
  -3  -6  -3   15.20    5.80
   3  -6   3   20.80   34.20
   3   6   3   45.60   33.40
   3   6   3   24.30    7.60
  -3   6  -3   28.00    6.60
   3   6   3   17.50    5.20
  -3   6  -3   21.80   20.80
   3   6   3   -7.00   12.50
   4   6   3   53.19   78.89
  -4  -7   3  111.19   13.80
  -4  -7   3  121.39   14.30
  -3  -7   3   74.59   12.50
   3  -7  -3   74.69    9.10
  -3  -7   3   62.59   10.70
  -3  -7   3   41.60   24.20
   3   7  -3   50.49   50.59
   3   7  -3   58.89   11.10
  -2  -7   3  111.69   41.00
  -2  -7   3   70.19   11.60
  -2  -7   3   78.79    9.10
   2  -7  -3   71.09   10.40
   2   7  -3   40.40   26.50
   2   7  -3   62.99   10.40
   1  -7  -3 3287.17  103.49
  -1  -7   3 2960.30  104.99
  -1  -7   3 3236.28  100.79
  -1  -7   3 3263.97  187.88
  -1   7   3 3395.56  122.29
   1   7  -3 3300.27  103.79
  -1   7   3 3289.47  104.39
  -1   7   3 3267.07  126.29
   1   7  -3 3280.87  195.58
   0  -7   3 1632.54   55.59
   0  -7  -3 1671.03   55.19
   0  -7  -3 1647.34   58.09
   0  -7   3 1651.23  122.19
   0   7   3 1688.13   96.09
   0   7   3 1479.65   96.79
   0   7  -3 1626.04   55.29
   0   7   3 1671.13   55.59
   0   7  -3 1722.43   56.89
   0   7  -3 1724.23  125.79
   0   7   3 1612.94   58.89
   1  -7   3 1214.18  101.09
  -1  -7  -3 1256.07   46.80
  -1  -7  -3 1205.28   45.40
   1  -7   3 1127.69   43.10
   1   7   3 1225.18   47.40
   1   7   3 1203.18   46.70
   1   7   3 1170.38   93.89
  -1   7  -3 1192.98   43.00
  -1   7  -3 1213.88   41.90
   1   7   3 1259.77   94.49
  -2  -7  -3   38.60    7.30
   2  -7   3   29.50    6.30
  -2  -7  -3   53.69   10.10
   2   7   3   37.10    7.30
  -2   7  -3   42.70    4.30
   2   7   3    7.90   13.90
  -2   7  -3   32.50    6.20
   2   7   3   31.80    8.70
   2   7   3   19.70   17.70
  -2   7  -3   50.39   23.20
   3  -7   3  116.49   39.30
  -3  -7  -3   71.89   12.50
   3  -7   3   68.99    8.70
  -3   7  -3   54.99   29.20
  -3   7  -3   61.59    9.30
   3   7   3   72.89   14.20
   3   7   3   61.29    9.60
   3   7   3   33.40   29.80
   4   7   3   30.90   15.40
  -4  -8   3   34.40   10.20
  -4  -8   3   44.80    9.60
   4  -8  -3   57.39    7.10
   4   8  -3   38.90   10.10
  -3  -8   3   37.90   10.30
  -3  -8   3   18.90   20.90
   3  -8  -3   58.69    9.60
  -3  -8   3   57.29   10.30
   3   8  -3   -2.00   28.30
   3   8  -3   59.59   11.40
  -2  -8   3  156.38   13.20
   2  -8  -3  159.28   13.50
  -2  -8   3  127.69   46.30
  -2  -8   3  143.69   14.90
   2   8  -3  217.98   64.69
   2   8  -3  148.49   14.50
  -1  -8   3   48.70    9.50
   1  -8  -3   40.10    4.10
  -1  -8   3   31.00   16.10
   1  -8  -3   31.80    7.10
  -1  -8   3   42.00    7.10
   1   8  -3   33.50    7.00
  -1   8   3   40.80    8.10
  -1   8   3   31.90   14.00
   1   8  -3   38.80   25.50
  -1   8   3   32.40   11.20
   0  -8  -3  331.17   17.80
   0  -8   3  335.17   18.30
   0  -8   3  315.27   47.00
   0  -8  -3  330.57   19.70
   0   8   3  356.46   41.70
   0   8  -3  347.47   19.00
   0   8   3  313.87   18.00
   0   8  -3  310.27   52.69
   0   8  -3  337.27   17.90
   0   8   3  332.77   20.60
   0   8   3  292.87   39.70
   1  -8   3   39.80    6.80
  -1  -8  -3   38.30    7.80
   1  -8   3   60.89   30.80
  -1  -8  -3   45.90    7.90
  -1   8  -3   36.60    6.40
   1   8   3   63.79   26.60
   1   8   3   39.10    8.40
  -1   8  -3   38.00    6.30
   1   8   3   37.60    8.00
   1   8   3   37.00   22.10
  -2  -8  -3   10.50    4.50
   2  -8   3   18.90   21.90
  -2  -8  -3    7.20    3.60
   2  -8   3   11.70    4.10
  -2   8  -3   30.90   15.10
   2   8   3    8.60    4.10
   2   8   3   40.00   20.20
  -2   8  -3    7.80    3.60
   2   8   3    2.20    2.70
  -2   8  -3    8.30    2.70
   2   8   3   -2.30   12.40
  -3  -8  -3   10.30    5.10
   3  -8   3    6.30   39.00
   3  -8   3   23.40    5.90
   3   8   3   30.40    9.70
   3   8   3   -0.80   26.20
  -3   8  -3   33.30    6.60
  -3   8  -3   11.00   17.40
   3   8   3   15.80    5.00
   3   8   3  -20.00   23.80
   4   8   3   -2.70    4.10
   3  -9  -3   29.90    6.70
  -3  -9   3   32.50    8.20
  -3  -9   3   16.10   30.20
  -3  -9   3   40.80    9.70
   3   9  -3   52.59   11.30
   3   9  -3   56.99   38.70
  -2  -9   3  148.09   15.40
  -2  -9   3  153.28   13.40
  -2  -9   3  102.19   36.80
   2  -9  -3  161.78   13.80
   2   9  -3  169.58   15.70
   2   9  -3  102.29   43.60
  -1  -9   3   35.00    8.60
  -1  -9   3   38.70    7.00
  -1  -9   3   79.59   29.40
   1  -9  -3   41.10    4.30
   1  -9  -3   33.80    7.30
   1  -9  -3   41.90    4.70
   1   9  -3   42.10    8.50
   1   9  -3   19.20   20.40
  -1   9   3   32.00   15.00
  -1   9   3   28.80    7.10
  -1   9   3   23.90   12.50
   0  -9  -3   24.80    5.90
   0  -9   3   17.80    4.80
   0  -9   3   13.90   16.40
   0  -9  -3   14.50    4.40
   0   9  -3   -1.30   12.70
   0   9   3   12.50   10.80
   0   9   3    7.50    3.60
   0   9   3    5.30    3.50
   0   9   3    1.20    8.50
   0   9  -3   13.50    4.00
   0   9  -3   11.20    4.00
  -1  -9  -3 1669.83   61.69
  -1  -9  -3 1724.63   61.59
   1  -9   3 1678.33   58.29
   1  -9   3 1770.32  133.89
   1   9   3 1664.63   62.79
   1   9   3 1784.12   64.59
  -1   9  -3 1694.53   57.49
  -1   9  -3 1740.03  131.89
   1   9   3 1464.05  117.09
   1   9   3 1630.24  116.69
  -1   9  -3 1583.34   56.69
   2  -9   3   66.39    9.70
   2  -9   3   77.69   32.90
  -2  -9  -3   52.19    9.40
  -2  -9  -3   40.60    8.90
  -2   9  -3   59.19    7.30
  -2   9  -3   41.20   27.30
   2   9   3   62.89   12.50
   2   9   3   88.59   28.90
   2   9   3   67.59   11.10
   2   9   3   38.60   24.90
  -3  -9  -3   39.00    8.50
  -3  -9  -3   34.80    8.20
   3  -9   3   49.10    8.50
   3   9   3   32.00   34.20
   3   9   3   34.50    8.30
  -3   9  -3   30.10   28.30
  -3   9  -3   29.70    6.50
   3   9   3   35.90   10.50
   3   9   3   62.89   40.70
  -3 -10   3   -6.10    4.20
   3 -10  -3    2.10    3.30
  -3 -10   3   -5.90   20.20
  -3 -10   3    5.40    3.50
   3  10  -3   -0.40    5.10
   3  10  -3   -4.40   34.90
   2 -10  -3   10.60    4.70
  -2 -10   3   -3.20   20.90
  -2 -10   3   10.50    5.00
   2  10  -3  -17.40   20.80
   2  10  -3    8.10    3.90
   1 -10  -3  295.27   19.80
   1 -10  -3  294.27   14.00
   1 -10  -3  301.07   15.30
  -1 -10   3  318.87   19.20
  -1 -10   3  290.87   22.10
  -1 -10   3  287.37   56.79
  -1  10   3  301.17   34.80
  -1  10   3  264.87   20.00
   1  10  -3  292.87   20.30
   1  10  -3  343.97   82.79
  -1  10   3  265.07   38.00
   0 -10   3  706.73   86.19
   0 -10   3  705.53   31.10
   0 -10  -3  682.03   32.50
   0 -10  -3  681.03   33.10
   0  10   3  678.93   34.10
   0  10   3  693.93   65.69
   0  10  -3  760.02   91.59
   0  10  -3  658.43   31.40
   0  10   3  633.14   31.00
   0  10  -3  657.33   29.90
   0  10   3  719.33   71.49
   1 -10   3  808.82   35.40
  -1 -10  -3  912.21   39.60
  -1 -10  -3  896.31   39.70
   1 -10   3  898.61   94.79
  -1  10  -3  837.92   34.90
  -1  10  -3  883.81   36.00
   1  10   3  867.41   40.50
   1  10   3  830.82   40.20
   1  10   3  850.41   90.59
  -1  10  -3  995.60   99.19
   1  10   3  813.72   82.39
   2 -10   3  146.69   48.70
  -2 -10  -3  138.59   15.40
  -2 -10  -3  140.29   14.00
   2 -10   3  156.48   12.70
   2  10   3  149.88   49.10
  -2  10  -3  159.78   12.30
   2  10   3  161.88   17.10
  -2  10  -3  162.28   11.70
   2  10   3  187.98   63.39
   2  10   3  143.89   14.70
  -2  10  -3  196.88   50.49
  -3 -10  -3    2.10    5.30
   3 -10   3    1.20    3.00
  -3 -10  -3    8.60    4.40
   3  10   3  -15.80   19.40
  -3  10  -3  -15.90   19.80
   3  10   3    2.30    4.00
  -3  10  -3    1.10    2.80
   3  10   3   13.50   30.80
   3  10   3    7.80    7.90
  -3 -11   3   84.19   15.70
  -3 -11   3  112.39   46.50
   3 -11  -3  101.39   11.40
  -3 -11   3   94.49   15.30
   3  11  -3  216.78   75.29
   3  11  -3   97.39   15.60
  -2 -11   3   72.49   12.00
  -2 -11   3   60.79   34.70
  -2 -11   3   79.09   14.50
   2 -11  -3   88.89   10.80
   2  11  -3   63.19   46.60
   1 -11  -3  434.76   25.50
  -1 -11   3  393.76   23.20
  -1 -11   3  434.06   70.39
  -1 -11   3  410.96   27.70
   1 -11  -3  454.25   19.00
   1 -11  -3  410.86   19.90
  -1  11   3  403.16   26.00
  -1  11   3  415.16   42.60
  -1  11   3  356.06   47.90
   1  11  -3  436.46   26.00
   1  11  -3  350.06   68.49
   0 -11  -3  239.58   18.00
   0 -11  -3  247.78   16.70
   0 -11   3  203.78   15.40
   0 -11   3  213.98   16.80
   0 -11   3  255.27   52.99
   0  11   3  213.08   41.40
   0  11   3  196.48   15.90
   0  11  -3  231.98   63.79
   0  11   3  231.18   18.80
   0  11   3  192.48   35.90
   0  11  -3  218.68   15.20
   0  11  -3  209.08   16.40
  -1 -11  -3    5.90    4.60
  -1 -11  -3    8.60    4.60
   1 -11   3   -5.40   19.80
   1 -11   3    2.70    2.80
   1 -11   3    3.10    3.00
   1  11   3    5.50    3.90
  -1  11  -3   23.10   18.10
  -1  11  -3    5.70    3.00
   1  11   3    5.20    4.10
   1  11   3   29.10   16.00
  -1  11  -3    3.90    2.80
  -2 -11  -3  220.48   19.40
   2 -11   3  218.68   15.80
  -2 -11  -3  219.68   18.20
   2 -11   3  313.77   79.19
  -2  11  -3  194.68   14.20
   2  11   3  192.88   17.70
  -2  11  -3  271.77   50.89
   2  11   3  254.77   67.99
   2  11   3  202.88   20.50
  -2  11  -3  233.48   15.50
   2  11   3  201.58   58.39
   3 -11   3   12.30    4.80
  -3 -11  -3    8.50    4.90
  -3 -11  -3    9.80    4.70
  -3  11  -3   13.90    5.30
   3  11   3   23.70    9.50
  -3  11  -3  -20.30   22.60
   3  11   3   10.30    6.40
   3  11   3   31.90   30.40
  -3 -12   3   29.60   26.10
  -3 -12   3   84.49   15.30
   3 -12  -3   73.39   11.60
  -3 -12   3   78.09   13.10
   3  12  -3   66.79   13.50
   3  12  -3   25.10   38.50
  -2 -12   3  456.35   75.59
  -2 -12   3  342.77   26.60
  -2 -12   3  386.66   24.20
   2 -12  -3  317.67   22.10
   2 -12  -3  274.77   11.40
   2  12  -3  204.18   62.89
   2  12  -3  377.26   26.10
   1 -12  -3  165.88   15.50
   1 -12  -3  175.38   12.40
  -1 -12   3  153.28   14.00
  -1 -12   3  229.28   63.39
  -1 -12   3  169.68   17.50
   1 -12  -3  171.48   11.10
   1  12  -3  165.08   16.10
  -1  12   3  132.79   27.80
   1  12  -3  223.68   72.29
  -1  12   3  162.98   35.00
  -1  12   3  161.48   16.10
   0 -12  -3   45.70    9.20
   0 -12   3   59.49    9.50
   0 -12   3  113.09   39.50
   0 -12   3   39.90    9.00
   0 -12  -3   60.69    9.80
   0  12   3   44.70   21.20
   0  12   3   64.09   11.20
   0  12  -3   51.39   33.70
   0  12  -3   52.49    9.80
   0  12   3   77.39   31.60
   0  12   3   49.80   10.50
   1 -12   3  218.28   16.20
   1 -12   3  226.68   17.00
  -1 -12  -3  225.18   18.40
   1 -12   3  263.17   69.39
  -1 -12  -3  224.98   18.40
   1  12   3  214.38   19.40
   1  12   3  162.98   46.50
   1  12   3  241.88   47.40
  -1  12  -3  218.18   15.30
   1  12   3  237.08   20.00
  -1  12  -3  203.98   58.59
  -1  12  -3  202.88   16.10
  -2 -12  -3  127.99   16.00
   2 -12   3  160.88   50.79
  -2 -12  -3  129.19   14.70
   2 -12   3  128.69   12.50
   2  12   3  176.98   63.09
   2  12   3  202.18   55.09
  -2  12  -3  139.09   11.90
  -2  12  -3  159.58   47.10
  -2  12  -3  131.59   12.20
   2  12   3  183.98   17.80
   2  12   3  133.89   20.30
   3  12   3  119.89   54.79
  -3  12  -3   85.69   31.50
  -3 -13   3  100.09   45.70
  -3 -13   3  112.09   14.20
   3 -13  -3  144.69   16.30
  -3 -13   3   93.79   24.30
   3  13  -3   99.69   17.10
  -2 -13   3    0.60    3.90
  -2 -13   3   17.30   21.70
   2 -13  -3    0.70    1.10
   2 -13  -3    4.50    1.80
  -2 -13   3    2.90    3.70
   2 -13  -3    1.30    3.70
   2  13  -3  -15.20   24.40
   2  13  -3    1.50    4.80
   1 -13  -3  121.99    9.60
  -1 -13   3  121.39   18.20
   1 -13  -3  103.49    9.90
  -1 -13   3   71.89   38.30
   1 -13  -3  107.49   12.80
  -1 -13   3  111.59   12.10
   1  13  -3   85.89   44.20
  -1  13   3  119.69   33.20
   1  13  -3  128.09   15.30
  -1  13   3  104.29   15.90
  -1  13   3  122.29   40.60
   0 -13   3   69.59   10.90
   0 -13  -3   60.19   10.40
   0 -13   3   62.19   11.30
   0 -13  -3   42.00    9.60
   0 -13   3   22.20   21.00
   0  13   3   33.20   21.40
   0  13   3   56.19   11.50
   0  13  -3   57.79   10.60
   0  13   3   57.99   27.30
  -1 -13  -3  304.87   22.70
  -1 -13  -3  308.67   22.60
   1 -13   3  303.87   20.90
   1 -13   3  327.67   62.89
   1 -13   3  311.77   20.20
  -1  13  -3  323.27   58.99
   1  13   3  313.87   24.30
   1  13   3  233.88   61.39
  -1  13  -3  274.47   18.40
  -1  13  -3  311.07   21.00
   1  13   3  262.87   51.39
   1  13   3  287.27   23.10
  -2 -13  -3    5.20    4.60
   2 -13   3    6.90    3.40
  -2 -13  -3    2.80    4.30
   2  13   3    0.60    2.90
  -2  13  -3   -3.40    2.40
   2  13   3    3.80    5.40
  -2  13  -3    5.60    3.80
  -2  13  -3   -7.10   22.00
   2  13   3   35.70   24.70
   2  13   3   27.40   27.80
   3 -13   3  118.49   12.10
  -3 -13  -3   84.49   14.60
   3  13   3  188.38   63.69
   3  13   3   24.10   38.20
   3  13   3   96.19   16.80
   3  13   3   79.49   17.10
  -3  13  -3   36.00   37.90
  -3  13  -3  123.29   11.00
   3 -14  -3   38.20    8.30
  -3 -14   3   37.40   11.20
  -3 -14   3   11.60    9.20
   3  14  -3    2.60    7.00
  -2 -14   3   53.99   31.10
   2 -14  -3    9.10    2.60
  -2 -14   3    8.10    4.60
   2 -14  -3   12.40    5.00
  -2 -14   3    4.50    6.30
   2 -14  -3   14.00    3.10
   2  14  -3   10.80    6.70
   2  14  -3   48.00   39.20
   1 -14  -3    2.90    3.30
  -1 -14   3    4.10    4.60
   1 -14  -3    0.50    2.30
   1 -14  -3   -2.70    3.80
  -1 -14   3    0.20    3.40
  -1  14   3  -10.50   10.90
   1  14  -3  -44.40   28.80
  -1  14   3   -0.20    3.70
   1  14  -3   -3.10    2.70
  -1  14   3   -5.80   16.90
   0 -14   3   13.40    6.60
   0 -14  -3    8.80    3.70
   0 -14   3   11.20   19.40
   0 -14   3   12.10    5.30
   0 -14  -3    7.20    4.80
   0  14  -3   16.50    6.10
   0  14  -3  -11.40   21.40
   1 -14   3  155.08   15.40
  -1 -14  -3  178.18   17.80
   1 -14   3  243.48   50.79
  -1 -14  -3  171.98   17.40
   1 -14   3  172.78   15.00
   1  14   3  145.49   17.10
  -1  14  -3  176.58   16.20
  -1  14  -3  195.28   63.19
   1  14   3  158.38   58.49
   1  14   3  146.89   53.09
  -1  14  -3  171.68   14.20
   1  14   3  141.09   17.00
   2 -14   3   12.00    4.30
  -2 -14  -3    4.00    4.70
  -2 -14  -3    3.70    5.30
   2 -14   3   25.10   21.80
  -2  14  -3   10.10    4.70
   2  14   3  -15.50   33.10
  -2  14  -3    5.10    3.80
   2  14   3    0.90    4.10
   2  14   3   16.30    7.20
  -2  14  -3   -9.70   21.80
   2  14   3   25.30   25.60
   3 -14   3  104.99   48.10
   3 -14   3   87.99   10.70
  -3 -14  -3   86.49   16.40
  -3 -14  -3   79.29   14.10
   3  14   3   72.09   15.90
  -3  14  -3   70.49   39.60
   3  14   3  116.79   18.90
   3  14   3   31.60   44.60
   3  14   3  145.19   57.49
  -3  14  -3   85.69    9.40
   3 -15  -3   10.50    6.20
  -3 -15   3    3.00    5.40
  -3 -15   3   11.60    7.70
   3  15  -3   -8.30    7.30
  -2 -15   3   16.10    8.20
  -2 -15   3   28.80   36.50
  -2 -15   3   19.60    7.90
   2 -15  -3   36.40    9.20
   2 -15  -3   30.80    5.20
   2 -15  -3   19.50    4.10
   2  15  -3   -4.30   45.30
  -2  15   3   45.00   14.90
  -2  15   3   19.30   15.10
   2  15  -3   15.00    7.00
  -1 -15   3   26.10    7.30
  -1 -15   3   32.20    9.90
   1 -15  -3   34.30    7.40
   1 -15  -3   29.10    6.40
   1 -15  -3   25.30    7.70
  -1 -15   3   93.29   34.80
  -1  15   3   40.90   29.80
   1  15  -3   61.09   39.40
   1  15  -3   27.10    8.50
  -1  15   3   27.60    9.10
  -1  15   3   36.60   22.20
   0 -15  -3  242.88   19.50
   0 -15   3  305.77   78.69
   0 -15  -3  293.97   23.40
   0 -15  -3  289.07   19.20
   0 -15   3  280.67   22.80
   0 -15   3  247.98   22.60
   0 -15   3  271.47   20.40
   0  15   3  247.78   22.80
   0  15  -3  257.17   21.30
   0  15   3  286.17   57.99
   0  15  -3  330.57   72.19
   1 -15   3    7.10    5.00
  -1 -15  -3    2.60    5.20
  -1 -15  -3   11.60    6.50
   1 -15   3    5.50    3.70
   1 -15   3   -1.30   20.50
   1  15   3   11.60    6.40
   1  15   3   11.90    6.20
  -1  15  -3    6.50    4.90
  -1  15  -3   20.10   22.30
   1  15   3   10.20   23.30
   1  15   3    4.20   28.80
   2 -15   3   15.10    5.70
  -2 -15  -3    4.50    6.10
   2 -15   3   20.50   31.50
  -2 -15  -3   -2.90    4.90
  -2  15  -3   -5.10   31.90
   2  15   3    8.20    6.60
  -2  15  -3    5.80    5.10
   2  15   3    4.80    6.60
   2  15   3   53.69   30.90
  -2  15  -3    5.40    3.90
   2  15   3   14.90   29.10
   3 -15   3    5.20   38.80
  -3 -15  -3   31.60   10.20
  -3 -15  -3   28.00   12.30
   3 -15   3   33.60    8.50
   3  15   3   45.30   13.30
   3  15   3   70.69   62.19
  -3  15  -3  -47.80   39.10
   3  15   3   62.59   54.89
   3  15   3   32.70   10.80
   2 -16  -3   98.59    8.40
  -2 -16   3   82.89   17.40
   2 -16  -3   89.59   15.20
  -2 -16   3  121.09   44.80
  -2 -16   3   84.89   15.00
  -2  16   3  101.99   27.90
   2  16  -3   64.59   52.59
  -2  16   3   96.29   16.80
  -2  16   3  140.59   22.20
   2  16  -3  100.89   17.60
   1 -16  -3   22.80    6.50
   1 -16  -3   13.10    4.80
  -1 -16   3    8.20    6.40
  -1 -16   3   28.10   26.10
   1 -16  -3   15.20    6.10
  -1 -16   3   15.90    5.70
  -1  16   3    8.30    5.80
  -1  16   3  -13.10   23.60
  -1  16   3   19.10   17.90
   1  16  -3   28.00   45.30
   1  16  -3   17.10    7.60
   0 -16   3    9.50    5.20
   0 -16  -3    1.20    3.00
   0 -16  -3    9.70    4.50
   0 -16   3    4.50    5.80
   0 -16  -3    3.50    3.50
   0 -16   3    4.50    5.20
   0 -16   3    6.70   24.00
   0  16   3    6.10    4.80
   0  16   3    4.40   17.30
   0  16  -3   -0.60    2.90
   0  16  -3  -19.40   25.70
   0  16   3   21.80   24.50
   1 -16   3   27.80   26.70
   1 -16   3   27.10    7.30
  -1 -16  -3   32.30    9.40
   1 -16   3   34.10    9.20
  -1 -16  -3   18.40    7.60
   1  16   3   35.00   10.60
  -1  16  -3   29.90   26.40
   1  16   3  -18.40   26.20
  -1  16  -3   35.10    9.10
   1  16   3   31.00   34.70
   1  16   3   26.30    9.30
   2 -16   3    7.80    5.30
  -2 -16  -3    7.90    7.20
   2 -16   3  -30.10   22.70
  -2 -16  -3    2.40    5.20
   2  16   3   15.30    9.30
   2  16   3   10.80    7.80
   2  16   3  -56.69   37.10
  -2  16  -3   14.30   35.00
   2  16   3   -7.50   25.00
  -2  16  -3   -0.40    4.40
   2 -17  -3   -2.50    5.50
  -2 -17   3  -33.60   40.90
  -2 -17   3    2.30    6.30
   2 -17  -3   -2.40    2.30
   2 -17  -3    5.70    2.90
  -2 -17   3  -16.10    5.40
   2  17  -3  -60.49   46.90
   2  17  -3    5.50    5.20
  -2  17   3   -6.70    5.10
  -1 -17   3   45.90   11.10
  -1 -17   3   57.29   14.60
   1 -17  -3   65.69   14.00
   1 -17  -3   42.10    8.10
   1 -17  -3   50.29    9.30
  -1 -17   3   26.40   34.50
   1  17  -3   54.59   12.60
  -1  17   3   39.20   23.00
  -1  17   3   61.19   14.00
  -1  17   3   38.90   35.10
   1  17  -3   41.30   55.89
   0 -17  -3    3.10    3.90
   0 -17   3   12.00    6.90
   0 -17   3   41.20   21.80
   0 -17   3    8.80    4.50
   0 -17  -3    5.30    3.60
   0 -17  -3    4.70    3.30
   0 -17   3    3.30    4.10
   0  17   3   11.70   24.70
   0  17  -3   32.20   42.60
   0  17  -3    7.30    5.70
   0  17   3    4.70    5.80
   0  17   3   11.00   18.40
   1 -17   3   79.09   14.00
  -1 -17  -3  111.19   17.70
   1 -17   3  143.19   62.49
   1 -17   3   84.89   15.60
  -1 -17  -3   70.29   15.20
   1 -17   3   89.49   13.30
   1  17   3   33.70   52.19
  -1  17  -3   89.29   14.90
  -1  17  -3  130.29   45.40
   1  17   3   85.29   16.30
   1  17   3  134.69   48.80
   2 -17   3   16.10   30.60
  -2 -17  -3    2.80    6.40
  -2 -17  -3  -10.70    5.90
   2 -17   3    6.80    5.30
   2  17   3   57.59   34.50
   2  17   3  -55.19   51.99
   2  17   3   -4.00    4.90
   2  17   3    1.40    5.90
  -2  17  -3   23.00   41.50
  -2  17  -3    0.30    4.90
  -2 -18   3    7.80    7.10
   2 -18  -3    4.80    3.30
  -2 -18   3   -3.70    6.20
  -2 -18   3   38.80   59.19
   2 -18  -3    4.40    6.70
  -2  18   3   -9.90   24.90
   2  18  -3   -6.30    6.30
  -2  18   3    5.20    4.70
   1 -18  -3   88.29   16.30
   1 -18  -3   81.79   10.20
  -1 -18   3   67.29   16.10
  -1 -18   3   62.89   12.60
   1 -18  -3  104.19   12.20
  -1  18   3   80.79   46.90
   1  18  -3  186.28   61.09
  -1  18   3   63.99   14.50
   1  18  -3   71.99   14.90
   0 -18   3   11.30    5.00
   0 -18  -3    7.90    5.90
   0 -18  -3   10.50    5.70
   0 -18  -3   12.30    5.80
   0  18  -3   21.00    7.80
   0  18   3   35.80   25.30
   0  18  -3   23.10   44.80
   0  18   3   26.50   25.80
   0  18   3    7.40    6.40
  -1 -18  -3  196.88   20.70
  -1 -18  -3  151.28   17.00
  -1 -18  -3  165.38   18.80
   1 -18   3  168.28   16.80
   1 -18   3  165.28   65.59
   1 -18   3  187.48   20.90
  -1  18  -3  194.78   19.50
   1  18   3  202.08   54.59
  -1  18  -3  125.59   60.69
   1  18   3  131.39   20.60
   1  18   3  140.99   64.69
  -2 -18  -3    9.10    8.90
   2 -18   3   20.80    7.20
   2 -18   3   17.50    7.20
  -2 -18  -3    8.70    7.80
   2  18   3  -55.89   57.09
  -2  18  -3  -28.70   44.60
   2  18   3    8.80    8.90
   2  18   3  -41.90   50.49
  -2  18  -3   22.00    7.50
  -2 -19   3  200.08   85.69
   2 -19  -3  167.58   20.70
  -2 -19   3  222.08   25.10
  -2  19   3  119.79   68.89
   2  19  -3  179.48   26.80
  -2  19   3  188.08   23.20
   2  19  -3   87.39   88.39
   1 -19  -3  254.77   24.80
  -1 -19   3  259.17   27.50
  -1 -19   3  289.57   82.49
   1 -19  -3  298.97   22.20
   1 -19  -3  317.47   20.80
   1  19  -3  236.68   93.49
   1  19  -3  369.16   43.50
  -1  19   3  229.48   25.70
  -1  19   3  258.97   80.69
   0 -19   3  211.28   70.69
   0 -19  -3  144.49   15.40
   0 -19   3  126.79   15.50
   0 -19   3  127.99   21.60
   0 -19  -3  135.99   15.90
   0 -19  -3  180.58   20.30
   0  19  -3   29.50   58.99
   0  19   3  159.78   50.49
   0  19   3  121.29   21.10
   0  19  -3  147.99   18.20
   1 -19   3  -29.50   29.40
  -1 -19  -3    0.60    5.30
  -1 -19  -3   -0.40    6.00
   1 -19   3    1.60    6.00
  -1 -19  -3    1.70    6.80
  -1  19  -3   16.00    6.00
   1  19   3  -22.40   60.19
   1  19   3  -22.70   31.30
  -1  19  -3  -64.49   46.00
   2 -19   3  143.89   46.40
   2  19   3   44.70   11.50
  -2  19  -3   48.10   11.30
   2  19   3   87.09   55.19
  -2  19  -3  -50.09   58.69
   2  19   3  -22.60   69.69
   1 -20  -3    8.90    6.00
  -1 -20   3  139.69   59.39
   1 -20  -3    6.30    7.80
  -1 -20   3    2.60    6.20
  -1 -20   3   11.00    6.70
   1 -20  -3   13.60    5.60
  -1  20   3    4.40   36.50
   1  20  -3 -107.29   63.79
   1  20  -3    2.50    5.90
   0 -20  -3    1.30    6.50
   0 -20  -3   24.60    9.30
   0 -20   3   22.00    8.00
   0 -20   3   20.40    9.20
   0 -20  -3   20.40    7.60
   0 -20   3   83.29   50.79
   0  20  -3  -95.79   69.29
   0  20   3    8.30    8.90
   0  20  -3   23.40   10.20
   0  20   3  -38.20   48.90
  -1 -20  -3   33.60   11.60
   1 -20   3   30.40   11.80
   1 -20   3    1.20   40.10
  -1 -20  -3   32.00   10.10
   1 -20   3   47.90   11.60
  -1 -20  -3   24.60   11.00
  -1  20  -3   61.39   14.50
   1  20   3   63.69   14.60
   1  20   3  -27.50   58.99
  -1  20  -3   -1.50   59.99
   0 -21   3   79.29   52.19
   0 -21  -3   10.70    6.30
   0 -21  -3    9.90    8.20
   0 -21   3    1.90    7.10
   0 -21  -3    6.90    7.50
   0 -21   3   13.20    8.20
   0  21   3    3.20    5.90
   0  21  -3   13.70    8.40
   0  21   3  -61.29   63.89
   0  21  -3 -110.29   80.39
   4   0  -4  247.28   18.60
  -4   0   4  259.07   16.70
  -3   0   4   72.39    6.70
  -3   0   4   69.99    6.30
   3   0  -4  108.49   32.40
  -2   0   4  706.53   58.29
   2   0  -4  675.93   60.99
  -2   0   4  655.33   25.50
   1   0  -4   15.50   11.20
  -1   0   4   25.80    3.90
  -1   0   4   16.90   11.70
   1   0  -4   25.10    3.80
   0   0   4 9325.17  335.77
   0   0  -4 9999.00  336.87
   1   0   4   70.99    7.40
  -1   0  -4   77.89    7.70
  -1   0  -4   78.79    6.70
   1   0   4  106.39   34.10
  -1   0  -4   55.79   22.60
  -2   0  -4  447.86   16.00
   2   0   4  459.35   24.20
   2   0   4  486.25   63.99
  -2   0  -4  460.15   24.10
  -2   0  -4  513.85   61.79
   3   0   4   25.80    7.70
  -3   0  -4   10.20    5.70
   3   0   4   40.60   31.10
   4   0   4   -6.00    5.30
  -4   0  -4   -2.10    4.70
   4   1  -4   54.79   52.29
  -3  -1   4   98.59    8.90
  -3  -1   4  108.09    8.90
   3   1  -4  135.99   38.10
  -3   1   4   97.29    6.60
  -3   1   4   98.69    6.50
  -2  -1   4    2.00    2.10
  -2  -1   4   -3.80    7.40
  -2  -1   4    0.60    1.20
   2  -1  -4   -5.90    6.80
  -2   1   4    1.40    1.10
  -2   1   4    0.00    1.20
  -2   1   4   -1.10    5.30
  -1  -1   4  188.38   31.50
   1  -1  -4  176.38   25.80
  -1  -1   4  157.78    9.50
   1  -1  -4  158.98    8.50
  -1   1   4  186.98   27.90
  -1   1   4  146.69    8.30
   1   1  -4  161.28   29.50
   1   1  -4  173.48    9.70
   0  -1  -4  767.02   28.20
   0  -1   4  736.93   65.09
   0  -1  -4  754.12   60.29
   0  -1   4  697.63   27.70
   0   1  -4  760.12   65.69
   0   1   4  744.93   61.39
   0   1  -4  784.12   28.30
   0   1   4  809.42   28.40
   1  -1   4  167.58   42.80
  -1  -1  -4  120.49    9.30
  -1  -1  -4   88.19   29.40
  -1  -1  -4  131.29   10.20
   1  -1   4  129.19   10.00
  -1   1  -4  164.88   31.30
   1   1   4  165.58   30.50
   1   1   4  133.89   10.40
  -1   1  -4  130.49   10.10
  -2  -1  -4  770.22   26.10
   2  -1   4  762.62   33.40
  -2  -1  -4  801.92   34.40
   2  -1   4  811.32   80.49
  -2  -1  -4  784.02   77.99
   2   1   4  737.93   33.70
  -2   1  -4  717.43   32.90
  -2   1  -4  730.93   22.20
   2   1   4  812.12   80.49
  -2   1  -4  807.62   76.89
   3  -1   4   10.80   30.40
  -3  -1  -4    4.90    3.60
   3  -1   4    2.20    3.30
   3   1   4    9.30   24.10
   3   1   4    3.10    3.80
  -3   1  -4  -10.90   16.50
  -3   1  -4    4.50    3.70
   4  -1   4   74.29   14.20
   4  -1   4  138.89   73.99
   4   1   4  117.69   17.20
  -4   1  -4  126.89   14.10
   4   1   4   70.89   69.49
   4  -2  -4   14.90    6.20
   4  -2  -4    5.30    4.80
  -4  -2   4   12.50    4.30
   4   2  -4    9.00    5.60
   3  -2  -4  441.66   38.90
  -3  -2   4  408.86   20.60
  -3  -2   4  388.66   19.30
   3  -2  -4  372.66   35.40
  -3   2   4  318.07   11.40
   3   2  -4  469.55   64.49
  -2  -2   4  298.27   15.20
   2  -2  -4  292.77   32.90
  -2  -2   4  294.87   16.90
  -2  -2   4  326.37   83.79
  -2   2   4  278.47   26.60
  -2   2   4  314.07   11.20
  -2   2   4  270.07   10.60
   2   2  -4  309.07   51.39
  -1  -2   4 1502.75  101.59
   1  -2  -4 1398.06   74.69
  -1  -2   4 1402.86   46.30
   1  -2  -4 1395.26   43.00
   1   2  -4 1434.96   46.30
  -1   2   4 1371.16   78.59
   1   2  -4 1351.26   97.09
   0  -2   4  691.43   66.69
   0  -2  -4  823.02   61.99
   0  -2  -4  792.32   28.70
   0  -2   4  782.82   29.60
   0   2   4  820.82   62.59
   0   2  -4  741.93   66.79
   0   2   4  778.92   28.30
   0   2  -4  768.92   29.10
   1  -2   4  729.63   30.60
  -1  -2  -4  791.82   31.90
  -1  -2  -4  771.72   30.00
   1  -2   4  781.52   73.79
  -1  -2  -4  783.72   70.09
   1   2   4  774.82   71.29
  -1   2  -4  812.02   31.80
  -1   2  -4  881.11   75.09
   1   2   4  796.42   31.80
   2  -2   4  109.09   33.50
  -2  -2  -4  134.49   37.70
  -2  -2  -4  101.29   10.50
  -2  -2  -4  103.99    7.50
   2  -2   4  112.89   10.50
   2   2   4   65.09   26.50
  -2   2  -4  120.69   10.80
   2   2   4  104.39   10.90
   3  -2   4   26.50   27.60
   3  -2   4   26.30    6.90
  -3  -2  -4   26.60    7.50
   3   2   4   31.50    8.10
  -3   2  -4   25.50    6.80
  -3   2  -4   21.00   19.30
   3   2   4   67.09   35.30
   3   2   4   18.60   16.80
   4  -2   4  -84.59   58.99
   4  -2   4   -0.50    7.00
  -4  -2  -4    8.70    5.80
   4   2   4    9.40    6.60
   4   2   4   12.80   65.99
  -4   2  -4    8.50    6.20
  -3  -3   4  206.18   40.90
   3  -3  -4  211.98   17.30
  -3  -3   4  230.88   15.50
  -3  -3   4  202.18   14.00
   3   3  -4  199.88   17.00
   3   3  -4  170.48   52.39
  -2  -3   4   35.10   16.20
  -2  -3   4   47.60    8.00
  -2  -3   4   41.10    6.40
   2   3  -4  100.39   34.50
  -1  -3   4  745.53   72.79
  -1  -3   4  793.22   29.90
   1  -3  -4  807.82   25.90
   1  -3  -4  801.62   49.30
   1   3  -4  759.52   74.99
   1   3  -4  793.72   29.80
  -1   3   4  806.42   53.39
   0  -3  -4    3.80    2.00
   0  -3   4    5.80    2.40
   0  -3  -4    7.70    3.30
   0  -3  -4    8.50    8.30
   0  -3   4   20.50   23.80
   0   3   4    5.80    2.40
   0   3  -4    6.40    2.80
   0   3  -4   -3.00    7.70
   0   3   4   13.00    9.10
   1  -3   4   89.89    8.40
   1  -3   4  108.99   35.70
  -1  -3  -4   75.49   23.90
  -1  -3  -4   98.59    9.10
  -1  -3  -4   92.29    8.10
   1   3   4   98.39    8.90
   1   3   4   75.69    7.80
  -1   3  -4  118.99   36.60
  -1   3  -4   90.99    8.30
   1   3   4  115.59   34.30
  -2  -3  -4  187.78   11.20
  -2  -3  -4  158.98   43.10
  -2  -3  -4  184.18   14.60
   2  -3   4  186.58   13.80
   2  -3   4  201.88   41.50
   2   3   4  193.98   40.90
   2   3   4  173.78   14.70
  -2   3  -4  179.48   13.70
   2   3   4  149.79   12.80
   3  -3   4   33.90   34.80
  -3  -3  -4   39.80    8.20
   3  -3   4   34.20    7.80
  -3   3  -4   49.10   28.30
   3   3   4   31.50   39.70
  -3   3  -4   38.50    8.80
   3   3   4   49.90   32.30
   3   3   4   31.30    8.90
   4  -3   4  156.48   52.19
   4   3   4  194.38   60.19
   4   4  -4    2.10    8.20
   4   4  -4  142.19   49.30
  -3  -4   4   12.40    4.40
  -3  -4   4   15.30   14.60
   3  -4  -4    8.40    4.90
   3   4  -4   14.90    6.10
  -2  -4   4  152.98   13.20
  -2  -4   4  187.88   37.30
   2  -4  -4  154.38   13.80
   2   4  -4  165.68   35.30
   1  -4  -4  735.13   33.70
  -1  -4   4  805.32   30.80
  -1  -4   4  782.22   78.89
   1  -4  -4  830.02   25.80
   1  -4  -4  748.23   44.50
  -1   4   4  776.82   25.20
  -1   4   4  760.42   50.29
   1   4  -4  839.12   83.49
   1   4  -4  791.42   30.60
   0  -4  -4  312.27   15.30
   0  -4  -4  314.67   36.30
   0  -4   4  348.07   60.49
   0  -4   4  343.37   17.00
   0  -4  -4  307.37   18.00
   0   4   4  325.27   15.60
   0   4   4  303.77   37.70
   0   4  -4  292.77   45.20
   0   4  -4  286.67   15.60
   1  -4   4   34.70    6.10
  -1  -4  -4   33.10    6.40
  -1  -4  -4   33.50    6.10
   1  -4   4   35.20   17.80
  -1  -4  -4   19.00   14.20
  -1   4  -4   26.90    5.40
   1   4   4   26.00    5.60
   1   4   4   39.60    7.20
   1   4   4   46.70   22.60
  -1   4  -4   40.80   19.60
   2  -4   4   80.79    9.00
   2  -4   4  101.59   32.10
  -2  -4  -4   70.39    7.30
  -2  -4  -4   82.39    9.90
  -2   4  -4   79.49    9.00
   2   4   4   68.69    7.60
   2   4   4   76.39   11.80
   2   4   4   98.39   38.20
  -2   4  -4   70.09   26.90
   3  -4   4   25.80    7.10
  -3  -4  -4   38.70    8.90
   3  -4   4   31.20   34.60
   3   4   4  -28.20   27.50
   3   4   4   17.70   21.00
   3   4   4   30.50    7.90
  -3   4  -4   42.30   27.90
  -3   4  -4   48.90    9.10
  -3  -5   4   29.20    6.70
  -3  -5   4   19.60   19.70
   3  -5  -4   32.70    7.60
  -3  -5   4   17.30    5.50
   3   5  -4    8.30   32.60
   3   5  -4   13.80    5.90
  -2  -5   4   21.80    6.30
  -2  -5   4   18.70   15.70
  -2  -5   4   21.20    5.20
   2  -5  -4   19.90    6.00
   2   5  -4   25.70    6.80
   2   5  -4   13.10   15.60
  -1  -5   4  580.94   69.59
  -1  -5   4  530.55   24.00
   1  -5  -4  528.25   26.90
   1  -5  -4  565.14   19.20
  -1   5   4  532.55   18.90
  -1   5   4  540.65   40.20
   1   5  -4  525.45   23.90
   1   5  -4  533.65   67.89
   0  -5  -4    2.60    1.90
   0  -5   4    3.60   10.50
   0  -5  -4    6.70    3.30
   0  -5   4    6.10    2.70
   0  -5  -4    3.00    8.00
   0   5   4    5.40    2.80
   0   5   4    4.70    5.50
   0   5   4    3.10    2.10
   0   5  -4    3.10   11.60
   0   5  -4    4.70    2.30
  -1  -5  -4   72.49    8.30
   1  -5   4   75.79    7.90
   1  -5   4  110.29   36.10
  -1  -5  -4   68.39    7.80
  -1  -5  -4   85.79   26.30
   1   5   4  122.49   38.10
  -1   5  -4   76.39    6.70
   1   5   4   72.79    8.40
  -1   5  -4   71.09    7.60
   1   5   4   79.69    8.80
  -1   5  -4   77.39   31.80
  -2  -5  -4  157.58   14.20
  -2  -5  -4  163.18   12.00
   2  -5   4  166.88   13.30
   2  -5   4  215.98   46.10
  -2   5  -4  169.18    6.50
  -2   5  -4  141.49   39.10
  -2   5  -4  163.88   13.00
   2   5   4  125.49   38.30
   2   5   4  144.49   14.20
   2   5   4  225.08   60.89
   2   5   4  160.38   12.70
   3  -5   4    2.10    3.30
  -3  -5  -4    5.60    5.10
   3  -5   4   43.60   37.90
   3   5   4    2.80    2.80
   3   5   4   -1.60   20.20
  -3   5  -4    1.00    2.50
   3   5   4  -19.80   20.40
   3   5   4    4.60    3.50
  -3   5  -4   21.70   21.50
   4   5   4  308.67   76.39
  -4  -6   4   10.00    5.80
  -4  -6   4   -1.70    4.90
   4  -6  -4   -2.40    3.30
   4   6  -4  -12.70    4.90
   4   6  -4  -26.90   58.29
   3  -6  -4    6.40    3.70
  -3  -6   4    5.60    4.00
  -3  -6   4   15.10   15.70
  -3  -6   4    9.00    3.90
   3   6  -4    2.10    4.00
   3   6  -4   -8.90   22.70
  -2  -6   4  170.38   46.80
  -2  -6   4  121.29   10.80
  -2  -6   4  117.59   12.80
   2  -6  -4  116.19   12.00
   2   6  -4  111.19   12.10
   2   6  -4  160.08   52.69
   1  -6  -4  401.26   23.40
   1  -6  -4  437.66   16.30
  -1  -6   4  441.06   21.50
  -1  -6   4  439.96   61.59
  -1   6   4  435.26   35.90
  -1   6   4  444.26   33.40
   1   6  -4  385.26   61.29
   1   6  -4  438.86   21.50
   1   6  -4  433.66   23.70
  -1   6   4  422.56   16.50
   0  -6  -4   10.30    4.10
   0  -6   4   10.10   10.40
   0  -6  -4   13.90    3.70
   0  -6   4   10.40    3.60
   0   6  -4    9.10    3.30
   0   6   4   10.50    3.50
   0   6  -4   10.20    3.70
   0   6   4    8.20    3.40
   0   6  -4   20.20   14.30
   0   6   4   27.70   12.30
   1  -6   4   78.99    8.20
  -1  -6  -4   62.89    7.90
   1  -6   4   68.19   33.10
  -1  -6  -4   67.39    8.20
  -1   6  -4   81.69    7.70
  -1   6  -4   68.29    7.70
  -1   6  -4   71.69   26.80
   1   6   4   55.29    8.90
   1   6   4   78.39   28.30
   1   6   4   69.19    8.40
   2  -6   4   43.10   22.80
  -2  -6  -4    6.40    3.60
   2  -6   4    4.60    3.60
  -2  -6  -4   15.60    5.20
   2   6   4    9.70   13.40
   2   6   4    6.80    3.60
  -2   6  -4    7.90    3.80
   2   6   4   46.90   21.10
  -2   6  -4    9.80    2.10
   2   6   4   11.10    4.70
  -2   6  -4   30.80   12.10
   3  -6   4   -2.70   35.00
  -3  -6  -4   19.30    5.10
   3  -6   4   18.90    6.10
  -3  -6  -4   28.00    8.40
   3   6   4   -1.20   19.10
   3   6   4   23.30    8.10
  -3   6  -4   27.40    7.40
  -3   6  -4   30.40   25.80
   3   6   4   12.10    4.60
  -4  -7   4    5.10    5.20
   4  -7  -4    7.40    3.90
  -4  -7   4   13.70    6.40
   4   7  -4   -8.90    5.20
   3  -7  -4    7.40    4.10
  -3  -7   4   -3.40   20.30
  -3  -7   4   -2.50    3.20
  -3  -7   4   11.80    5.50
   3   7  -4   28.00   28.70
   3   7  -4    8.10    6.80
  -2  -7   4  126.39   40.50
  -2  -7   4  117.29   13.10
   2  -7  -4   99.59   11.60
  -2  -7   4  113.39   11.00
   2   7  -4   96.39   11.80
   2   7  -4   70.99   30.40
  -1  -7   4   49.60    7.80
   1  -7  -4   73.89    9.40
   1  -7  -4   72.09    5.40
  -1  -7   4   58.69   28.00
  -1   7   4   56.49   16.50
  -1   7   4   86.29   20.40
  -1   7   4   66.09    5.60
   1   7  -4   58.29    7.20
   1   7  -4   32.90   18.10
   1   7  -4   74.39    8.90
   0  -7  -4  419.26   20.10
   0  -7   4  433.56   21.40
   0  -7  -4  387.46   22.30
   0  -7   4  310.97   57.99
   0   7   4  390.06   45.00
   0   7  -4  412.16   20.70
   0   7   4  445.16   48.50
   0   7  -4  381.86   20.90
   0   7   4  429.56   20.60
   0   7  -4  364.26   58.79
   0   7   4  398.06   23.30
   1  -7   4   14.70    4.40
  -1  -7  -4   11.80    4.10
   1  -7   4   63.69   21.90
  -1  -7  -4   15.80    4.40
  -1   7  -4   16.00    4.10
   1   7   4   19.50   15.40
  -1   7  -4   16.40    4.70
  -1   7  -4   15.40   16.60
   1   7   4   22.20   13.50
   1   7   4   11.30    4.80
   1   7   4   12.50    4.60
   2  -7   4  267.77   57.79
  -2  -7  -4  276.77   17.90
   2  -7   4  268.87   17.60
  -2  -7  -4  252.87   19.40
   2   7   4  268.17   18.50
   2   7   4  279.07   21.00
   2   7   4  260.17   52.69
  -2   7  -4  278.37   49.99
   2   7   4  336.47   54.89
  -2   7  -4  291.17   17.80
  -2   7  -4  262.57   12.40
   3  -7   4  -21.30   39.20
  -3  -7  -4   29.40    8.40
  -3  -7  -4   24.00    6.00
   3  -7   4   21.40    6.50
   3   7   4   28.30    7.00
   3   7   4   41.10   27.10
  -3   7  -4   10.60   20.90
   3   7   4   24.10    8.10
  -3   7  -4   34.10    7.60
   3   7   4    8.50   24.90
  -3  -8   4  103.89   11.90
  -3  -8   4   98.19   15.10
  -3  -8   4  117.49   38.90
   3  -8  -4   99.99   11.50
   3   8  -4  114.99   53.39
   3   8  -4  151.68   15.90
  -2  -8   4  210.78   19.00
  -2  -8   4  264.47   54.09
   2  -8  -4  193.98   16.50
  -2  -8   4  221.68   16.20
   2   8  -4  253.57   70.29
   2   8  -4  197.58   17.60
   1  -8  -4   90.89    6.50
   1  -8  -4   84.59   10.10
  -1  -8   4   83.99    9.00
  -1  -8   4   89.89   34.10
   1   8  -4   77.79    8.70
  -1   8   4   66.79   20.70
   1   8  -4   61.89   28.90
   1   8  -4   53.59    9.60
  -1   8   4   92.99   22.30
   0  -8   4 4121.79  122.79
   0  -8   4 3923.11  237.08
   0  -8  -4 4150.08  121.09
   0  -8  -4 4058.49  125.79
   0   8   4 3853.91  178.58
   0   8  -4 3905.91  221.68
   0   8   4 3835.32  126.39
   0   8  -4 3974.40  121.59
   0   8   4 4037.80  183.78
   0   8  -4 3959.40  122.99
   0   8   4 3919.21  127.29
  -1  -8  -4   55.89    9.80
   1  -8   4   70.69   32.40
  -1  -8  -4   49.30    8.70
   1  -8   4   52.19    8.00
  -1   8  -4   56.59    6.80
   1   8   4   34.40   22.00
   1   8   4   52.59    9.60
  -1   8  -4   64.69   29.30
   1   8   4   89.19   33.60
   1   8   4   62.79   10.60
  -1   8  -4   55.69    8.40
  -2  -8  -4  144.79   14.70
   2  -8   4  183.48   14.30
  -2  -8  -4  167.08   14.00
   2  -8   4  210.58   63.19
   2   8   4  225.78   62.19
   2   8   4  172.28   16.70
   2   8   4  212.28   57.69
  -2   8  -4  180.48   49.00
  -2   8  -4  155.48   10.00
  -2   8  -4  174.68   13.60
   2   8   4  160.38   14.60
  -3  -8  -4    2.80    3.30
  -3  -8  -4    5.80    3.10
   3  -8   4    7.90    4.70
   3   8   4   10.10   27.40
  -3   8  -4   13.50   24.50
   3   8   4    6.80    4.50
   3   8   4   26.20   28.10
   3   8   4    6.70    5.40
  -3   8  -4    7.10    4.30
   3  -9  -4   16.40    5.40
  -3  -9   4   24.90    6.90
  -3  -9   4   45.20   33.70
  -3  -9   4   24.10    7.00
   3   9  -4    6.40    5.20
   3   9  -4  -11.90   33.40
  -2  -9   4   55.99   29.40
  -2  -9   4   77.49   11.40
  -2  -9   4   69.89   14.30
   2  -9  -4   44.80    9.10
   2   9  -4   83.19   31.40
   2   9  -4   60.49   11.60
  -1  -9   4    1.70    2.80
   1  -9  -4    1.10    2.90
  -1  -9   4   14.00   12.70
   1  -9  -4   -0.20    1.30
  -1  -9   4   -1.80    1.60
   1   9  -4    1.70    2.20
  -1   9   4   -0.60    2.60
   1   9  -4   -5.90   10.60
   0  -9  -4    4.90    3.00
   0  -9   4  -12.90   11.20
   0  -9   4   12.60    4.10
   0  -9  -4    8.30    3.60
   0   9   4   -7.20    8.70
   0   9   4    4.90    3.30
   0   9  -4   10.40    3.90
   0   9  -4    8.50    3.70
   0   9   4   18.20   11.50
   0   9   4    8.70    4.60
   0   9  -4   12.30   16.30
   1  -9   4  146.59   12.30
  -1  -9  -4  154.78   13.60
  -1  -9  -4  127.89   12.80
   1   9   4  144.99   45.00
   1   9   4  136.49   13.70
  -1   9  -4  147.59   12.00
   1   9   4  121.69   13.00
   1   9   4  178.88   36.50
  -1   9  -4   86.09   31.30
  -1   9  -4  129.99   11.00
  -2  -9  -4  121.69   13.70
  -2  -9  -4  120.09   12.40
   2  -9   4  145.49   22.30
   2  -9   4  219.68   46.50
   2   9   4  129.69   22.30
   2   9   4  117.29   13.00
  -2   9  -4  115.69   11.20
   2   9   4  130.19   50.89
  -2   9  -4  207.78   56.49
   2   9   4  147.99   51.09
   3  -9   4    7.00   38.80
  -3  -9  -4   -2.50    3.30
   3  -9   4    2.00    3.30
  -3  -9  -4   -5.70    3.60
   3   9   4   -6.40    3.30
  -3   9  -4    4.40   22.80
   3   9   4   -6.30    4.80
  -3   9  -4    0.00    3.80
   3   9   4  -12.50   19.50
  -3 -10   4   72.39   13.50
  -3 -10   4  100.49   34.30
  -3 -10   4   73.69   12.60
   3 -10  -4   74.59   12.40
   3  10  -4   78.79   14.10
   3  10  -4   36.50   41.60
   2 -10  -4  117.49   12.80
  -2 -10   4  149.19   43.30
  -2 -10   4  115.19   17.30
  -2 -10   4  110.49   12.30
   2  10  -4  112.19   14.30
   2  10  -4  107.59   41.90
   1 -10  -4  667.73   34.30
  -1 -10   4  630.14   31.30
  -1 -10   4  587.34   35.30
   1 -10  -4  706.13   27.10
  -1 -10   4  682.03   91.99
   1  10  -4  728.53   35.40
  -1  10   4  719.33   36.50
  -1  10   4  732.53   57.29
   1  10  -4  637.64   94.59
  -1  10   4  740.93   61.59
   0 -10   4   43.10    8.40
   0 -10  -4   64.69   10.70
   0 -10  -4   48.30   10.60
   0  10  -4   43.50    8.50
   0  10   4   46.70   10.20
   0  10   4   57.39   19.80
   0  10  -4   44.20   28.00
   0  10   4   32.40   18.50
   0  10   4   51.29    9.00
   0  10  -4   61.29    7.70
  -1 -10  -4  595.94   30.50
  -1 -10  -4  544.85   29.50
   1 -10   4  645.74   82.19
   1 -10   4  521.15   27.10
   1  10   4  577.04   67.99
  -1  10  -4  465.05   73.99
   1  10   4  490.05   29.90
  -1  10  -4  617.84   27.70
  -1  10  -4  539.15   26.80
   1  10   4  486.15   29.30
   1  10   4  581.24   73.69
  -2 -10  -4  101.69   11.80
   2 -10   4   81.79   58.09
   2 -10   4   92.19   10.50
   2  10   4  114.09   41.80
   2  10   4  108.69   43.60
   2  10   4   97.69   12.40
  -2  10  -4  109.49    9.50
  -2  10  -4  122.39   38.90
   2  10   4  107.39   16.70
  -2  10  -4  102.29   16.10
  -3 -10  -4   93.79   13.60
  -3 -10  -4  108.39   16.60
   3 -10   4   93.59   11.40
   3  10   4  114.29   13.60
   3  10   4  101.09   17.90
   3  10   4   73.49   35.50
  -3  10  -4   95.69   10.60
  -3  10  -4  122.49   45.00
   3 -11  -4   78.19   12.40
  -3 -11   4  158.48   50.79
  -3 -11   4   44.30   11.40
  -3 -11   4   67.19   12.40
   3  11  -4    1.20   24.10
   3  11  -4   43.80   10.70
  -2 -11   4   17.00   28.80
  -2 -11   4   29.20    8.40
   2 -11  -4   13.10    5.90
  -2 -11   4   16.50    7.80
   2  11  -4  -23.00   25.10
   2  11  -4   21.60    7.50
  -1 -11   4  257.47   18.50
  -1 -11   4  258.87   22.00
   1 -11  -4  247.38   19.80
   1 -11  -4  277.37   15.10
  -1 -11   4  334.27   60.09
  -1  11   4  239.18   20.40
   1  11  -4  278.07   75.09
  -1  11   4  230.78   38.30
   1  11  -4  271.57   20.50
  -1  11   4  252.27   34.70
   0 -11   4   30.90   13.80
   0 -11   4   12.10    5.00
   0 -11  -4   14.70    5.00
   0 -11  -4   11.20    4.70
   0  11  -4    6.80    3.60
   0  11   4   14.80    6.20
   0  11  -4  -25.40   18.20
   0  11   4   36.00   16.70
   0  11   4   27.10   14.40
   0  11  -4    9.00    3.90
   0  11   4   12.40    5.00
  -1 -11  -4   35.90    8.30
   1 -11   4   79.39   31.60
  -1 -11  -4   44.80    9.20
   1 -11   4   49.20    9.00
  -1  11  -4   43.00    8.40
   1  11   4   31.80    9.10
   1  11   4   58.79   28.10
  -1  11  -4   50.79   29.50
   1  11   4   41.70    9.80
  -1  11  -4   53.99    8.80
   2 -11   4   55.49    9.80
  -2 -11  -4   60.39   12.40
  -2 -11  -4   64.29   11.10
   2 -11   4   84.49   43.60
   2  11   4   59.09   13.20
   2  11   4   49.10   10.50
  -2  11  -4   47.80    7.80
  -2  11  -4   48.70    9.10
  -2  11  -4   44.70   29.40
   2  11   4   55.39   27.40
   2  11   4   15.20   18.90
  -3 -11  -4  180.58   18.00
   3 -11   4  182.68   16.10
   3 -11   4  221.98   74.69
  -3 -11  -4  197.68   20.20
   3  11   4  178.78   66.39
  -3  11  -4  208.28   15.70
  -3  11  -4  295.17   74.89
   3  11   4  196.38   19.20
   3  11   4  157.78   19.90
  -3 -12   4   13.50    7.70
   3 -12  -4   30.10    7.30
  -3 -12   4   25.00    9.10
  -3 -12   4  102.99   37.60
   3  12  -4   16.30    8.80
  -2 -12   4   75.09   12.20
  -2 -12   4   78.29   14.80
   2 -12  -4   59.89   10.90
  -2 -12   4   91.29   41.80
   2  12  -4   75.29   55.89
   2  12  -4   54.89   11.50
   1 -12  -4  204.28   13.20
  -1 -12   4  191.18   16.20
  -1 -12   4  179.08   18.80
   1 -12  -4  191.48   17.30
   1 -12  -4  205.48   12.20
  -1 -12   4  155.58   57.09
  -1  12   4  185.78   18.10
   1  12  -4  173.78   17.00
   1  12  -4  194.08   70.29
  -1  12   4  171.58   34.80
  -1  12   4  203.58   28.80
   0 -12  -4  156.48   13.80
   0 -12   4  164.68   14.30
   0 -12   4  195.48   60.89
   0 -12  -4  147.69   15.40
   0  12  -4  148.69   13.30
   0  12   4  145.19   16.40
   0  12   4  165.28   15.00
   0  12  -4  135.69   13.70
   0  12   4  216.18   39.70
   0  12  -4  138.49   52.29
   0  12   4  147.59   46.30
   1 -12   4  115.69   50.49
  -1 -12  -4   51.69   10.40
   1 -12   4   64.49   11.80
  -1 -12  -4   58.19   11.40
   1  12   4   46.40   25.90
   1  12   4   49.40   10.80
   1  12   4   38.90   26.70
  -1  12  -4   43.60   34.00
  -1  12  -4   49.70    8.90
  -1  12  -4   48.90    8.80
   1  12   4   57.79   11.70
   2 -12   4   68.59   45.00
  -2 -12  -4   87.39   14.60
   2 -12   4  101.99   11.40
  -2 -12  -4   99.69   15.10
  -2  12  -4   93.19   10.40
   2  12   4   97.99   16.10
   2  12   4  109.19   17.50
  -2  12  -4   96.19   10.50
   2  12   4   86.89   43.10
  -3 -12  -4   15.50    7.40
   3  12   4   60.89   42.70
   3  12   4  -75.19   50.99
   3  12   4   13.60    7.60
   3  12   4   19.80   12.00
  -3  12  -4   35.60   33.60
  -3 -13   4    4.30    6.90
  -3 -13   4   -7.30    5.80
   3 -13  -4   10.90    5.10
   3  13  -4   -2.40    5.50
   2 -13  -4   19.60    2.20
  -2 -13   4   19.60    7.70
  -2 -13   4   51.39   34.70
   2 -13  -4   17.50    1.80
  -2 -13   4   16.40    6.40
   2 -13  -4   23.90    7.80
   2  13  -4   11.70   22.10
   2  13  -4   27.50    8.40
   1 -13  -4   65.99    7.70
  -1 -13   4   51.89   12.20
   1 -13  -4   83.79   13.90
  -1 -13   4  106.29   40.50
   1 -13  -4   83.39    8.00
  -1 -13   4   66.49   17.50
   1  13  -4   78.69   37.90
  -1  13   4  101.19   26.10
  -1  13   4   96.59   28.80
   1  13  -4   76.19   12.90
  -1  13   4   55.19   12.10
   0 -13  -4   18.40    6.70
   0 -13   4   15.90    6.20
   0 -13   4   77.69   26.40
   0 -13  -4   21.50    5.80
   0  13  -4   44.30   27.40
   0  13   4   17.90    5.80
   0  13   4   -1.30   14.20
   0  13  -4    9.60    5.30
   0  13  -4   23.70    7.10
   0  13   4    6.70   14.70
   0  13   4   26.00    8.50
   1 -13   4  226.18   17.50
  -1 -13  -4  184.98   17.20
  -1 -13  -4  182.58   17.70
   1 -13   4  255.67   77.19
   1  13   4  169.98   17.60
   1  13   4  173.08   53.69
   1  13   4  209.58   66.89
  -1  13  -4  186.28   16.00
   1  13   4  219.68   24.80
  -1  13  -4  198.78   15.70
   2 -13   4    7.50    3.90
  -2 -13  -4    2.80    5.70
   2 -13   4  -21.90   24.40
  -2 -13  -4    2.40    4.00
  -2  13  -4    2.30   32.10
   2  13   4   -3.90   30.80
   2  13   4    0.60    4.40
  -2  13  -4    4.30    3.50
  -2  13  -4    4.20    4.10
  -3 -13  -4   -8.20    4.00
   3 -13   4  125.99   66.49
   3 -13   4    0.00    4.50
  -3 -13  -4   -3.30    3.80
   3  13   4  -22.80   51.29
  -3  13  -4  -21.60   43.00
   3  13   4    7.00   48.40
   3  13   4    0.80    5.30
  -3  13  -4    0.00    3.70
  -3 -14   4   10.00    6.20
  -3 -14   4   12.80    6.90
   3 -14  -4    8.60    6.20
   3  14  -4    6.90    8.30
   2 -14  -4   -1.90    0.80
  -2 -14   4   -0.60    5.50
   2 -14  -4   -0.90    3.20
   2 -14  -4   -0.30    1.30
  -2 -14   4   -5.70    4.30
   2  14  -4    3.30    4.80
  -1 -14   4    7.70    4.50
  -1 -14   4    4.10    5.50
   1 -14  -4    3.50    5.00
  -1 -14   4   -9.10   28.10
   1 -14  -4   -0.30    2.80
   1 -14  -4   10.30    3.90
  -1  14   4    5.50    6.10
   1  14  -4    5.30    4.30
  -1  14   4   -9.30   17.10
   1  14  -4   -6.70   25.40
  -1  14   4   -9.20   15.20
   0 -14  -4   20.50    6.30
   0 -14   4   58.59   27.00
   0 -14   4   11.60    4.70
   0 -14  -4   20.70    7.00
   0  14   4    8.70    5.20
   0  14   4   10.10   17.00
   0  14  -4  -34.30   28.10
   0  14  -4    9.90    5.40
   0  14   4   -4.40   13.70
   0  14   4    5.30    4.30
   1 -14   4   40.40   30.90
   1 -14   4   72.99   12.20
  -1 -14  -4   68.79   12.90
  -1 -14  -4   62.89   12.30
   1  14   4   89.39   39.30
   1  14   4   69.89   13.70
   1  14   4   44.90   10.60
  -1  14  -4   60.69   10.50
   1  14   4   47.70   39.90
  -1  14  -4   52.19   10.10
  -2 -14  -4   16.80    7.20
   2 -14   4   33.20    8.60
  -2 -14  -4   28.00    9.80
   2 -14   4   -5.20   32.00
   2  14   4   81.79   41.70
   2  14   4   28.00    8.50
  -2  14  -4   47.70   39.30
   2  14   4   51.99   14.30
  -2  14  -4   25.00    6.90
  -2  14  -4   46.20    9.00
   2  14   4   35.50   63.99
   3 -14   4    3.30    6.60
  -3 -14  -4   -5.40    6.10
  -3 -14  -4   15.20    8.50
   3  14   4   -1.30    5.50
  -3  14  -4  -43.00   45.30
   3  14   4   -3.10   53.79
  -3  14  -4    5.80    4.10
   3  14   4  -17.70   61.99
   3  14   4   -1.50   10.10
  -3 -15   4    2.50    7.70
   3 -15  -4   -6.00    4.50
   3  15  -4    3.20    7.70
  -2 -15   4   48.20   12.30
   2 -15  -4   45.00   11.00
   2 -15  -4   41.40    4.30
  -2 -15   4   10.20   39.60
  -2 -15   4   42.50   10.00
   2 -15  -4   46.20    8.00
   2  15  -4    7.70   54.49
   2  15  -4   47.30   11.50
  -1 -15   4   30.40   10.10
  -1 -15   4  -14.40   29.10
   1 -15  -4   34.70    9.80
  -1 -15   4   43.10    9.50
   1 -15  -4   42.50    8.40
   1 -15  -4   58.79    8.40
   1  15  -4   37.00   10.60
  -1  15   4   36.90   10.90
  -1  15   4   33.40   28.60
  -1  15   4   55.09   30.90
   0 -15  -4   24.70    7.50
   0 -15   4   40.10   21.80
   0 -15   4   10.90    5.20
   0 -15   4   25.50    9.10
   0 -15  -4   18.00    7.40
   0  15   4   20.30    8.10
   0  15   4   15.70   20.10
   0  15  -4   23.50   41.40
   0  15  -4    4.70    4.50
   0  15   4  -10.70   17.50
  -1 -15  -4    8.80    5.30
   1 -15   4    0.20    4.00
   1 -15   4    6.40   25.90
  -1 -15  -4   10.20    6.70
   1  15   4    1.40    5.00
   1  15   4   14.00   26.60
   1  15   4    7.90    5.60
   1  15   4   -9.80   27.60
  -1  15  -4    6.10    3.40
  -1  15  -4    7.80    4.50
   2 -15   4   64.39   39.10
  -2 -15  -4   30.40   10.00
   2 -15   4   32.80    8.70
  -2 -15  -4   32.40    9.70
  -2  15  -4   37.70   39.70
   2  15   4   95.49   45.00
  -2  15  -4   57.49   11.10
   2  15   4   46.40   12.30
   2  15   4   92.59   57.49
  -2  15  -4   51.89    9.60
   2  15   4   68.49   14.50
   2 -16  -4    5.60    4.60
   2 -16  -4    4.50    2.80
  -2 -16   4   18.90   30.00
  -2 -16   4   11.40    6.90
  -2 -16   4    3.80    6.20
   2  16  -4    3.30    7.00
   2  16  -4   -9.00   62.39
  -1 -16   4   41.20    9.60
   1 -16  -4   42.40   10.50
   1 -16  -4   41.60    7.80
  -1 -16   4   56.29   13.70
  -1 -16   4   76.29   33.40
   1 -16  -4   44.10    8.60
   1  16  -4  110.79   48.30
  -1  16   4    7.70   19.60
  -1  16   4   24.80   20.70
   1  16  -4   29.30   10.20
  -1  16   4   34.00   10.80
   0 -16  -4  404.46   26.60
   0 -16   4  424.76   86.49
   0 -16   4  409.76   26.80
   0 -16  -4  488.35   31.70
   0 -16   4  420.56   31.60
   0  16   4  313.07   59.29
   0  16   4  382.36   30.30
   0  16   4  358.36   71.99
   0  16  -4  324.47   90.19
   0  16  -4  422.96   28.90
   1 -16   4  111.89   13.30
  -1 -16  -4  144.39   17.00
   1 -16   4  188.68   61.69
  -1 -16  -4  119.69   18.70
  -1  16  -4  115.59   14.30
  -1  16  -4  118.29   13.10
   1  16   4   85.09   45.30
   1  16   4  113.49   49.40
   1  16   4   97.19   17.90
  -2 -16  -4    1.60    6.40
  -2 -16  -4    2.20    5.40
   2 -16   4   35.80   37.30
   2  16   4   -7.90   40.00
  -2  16  -4   12.40    5.60
   2  16   4   35.30   47.00
   2  16   4    1.10    5.80
  -2  16  -4   47.40   34.80
   2  16   4    3.20    6.10
   2 -17  -4   30.80    4.90
  -2 -17   4  -38.30   42.90
  -2 -17   4   29.80    9.50
  -2 -17   4   19.10   10.30
   2 -17  -4   63.79   13.70
   2 -17  -4   35.70    5.60
   2  17  -4   52.89   54.89
   2  17  -4   31.40   10.30
   1 -17  -4    5.50    4.00
   1 -17  -4    2.10    3.70
   1 -17  -4    7.80    5.40
  -1 -17   4   -0.50    4.90
  -1 -17   4    0.10    3.90
  -1 -17   4   37.10   32.10
   1  17  -4   -3.10   36.00
  -1  17   4  -20.20   28.40
   1  17  -4    2.00    4.90
  -1  17   4   -2.30    6.10
   0 -17   4   18.20   13.00
   0 -17  -4   13.40    6.20
   0 -17   4   16.10    5.80
   0 -17  -4   13.30    6.90
   0 -17   4   -3.10   30.40
   0 -17  -4    7.80    5.00
   0  17  -4  -23.60   32.50
   0  17   4   14.40    7.50
   0  17   4   87.89   36.10
   0  17   4   -8.60   24.70
   0  17  -4   12.40    5.50
   1 -17   4   66.59   12.00
  -1 -17  -4   73.39   14.80
   1 -17   4   59.99   40.30
  -1 -17  -4   84.69   16.00
   1  17   4   74.99   15.40
   1  17   4   68.59   15.10
   1  17   4   32.60   44.10
  -1  17  -4   71.69   13.20
  -2 -17  -4    5.30    4.90
  -2 -17  -4    2.50    5.70
   2 -17   4  -40.10   36.60
   2  17   4    3.40    8.70
   2  17   4    9.50   45.40
   2  17   4   68.49   40.50
  -2  17  -4    0.60    4.40
   2  17   4   -3.20    6.40
  -2  17  -4  -61.39   43.30
  -2 -18   4   -0.50    8.50
  -2 -18   4   10.30    6.40
   2 -18  -4   22.20    8.90
   2 -18  -4   14.40    3.90
  -2 -18   4  -39.80   52.99
   2  18  -4  -72.89   59.49
   2  18  -4   10.90    5.70
   1 -18  -4   11.80    5.80
  -1 -18   4   26.50   41.10
  -1 -18   4   16.80    8.10
   1 -18  -4   28.70    7.70
  -1 -18   4   21.10    9.90
   1 -18  -4   21.30    8.30
  -1  18   4   24.00    9.40
   1  18  -4   15.10    6.90
   1  18  -4   51.89   57.39
  -1  18   4   -0.10   34.90
   0 -18  -4   27.90    6.90
   0 -18   4   17.90   28.60
   0 -18   4   10.80    6.30
   0 -18  -4   11.50    6.30
   0 -18   4   12.10    9.00
   0 -18  -4   21.00    6.70
   0  18   4   21.90   10.20
   0  18  -4   20.60    8.30
   0  18   4  -49.10   30.40
   0  18  -4  -21.90   47.00
   0  18   4    8.90   30.30
  -1 -18  -4   74.99   15.90
   1 -18   4   65.09   15.70
   1 -18   4   34.30   42.40
  -1 -18  -4   63.29   13.90
   1 -18   4   80.89   14.00
   1  18   4   81.19   42.40
  -1  18  -4   72.39   14.70
   1  18   4   49.99   64.29
   1  18   4   58.39   14.90
  -1  18  -4   68.49   63.89
  -2 -18  -4  -19.00    6.90
   2 -18   4   48.80   39.80
  -2 -18  -4    1.90    5.60
   2 -18   4   11.70    5.40
   2  18   4    7.50   54.09
   2  18   4   17.70   10.80
   2  18   4  -68.39   66.19
  -2  18  -4    4.70    5.50
   2  18   4   -1.70    5.80
   1 -19  -4   82.49   12.90
  -1 -19   4   65.29   13.70
  -1 -19   4   94.79   18.50
   1 -19  -4   93.29   12.90
  -1  19   4   79.09   17.50
  -1  19   4   49.50   49.99
   1  19  -4   74.29   16.10
   1  19  -4   93.99   67.09
   0 -19  -4   17.50    5.90
   0 -19   4   -8.70   37.20
   0 -19  -4    0.50    5.90
   0 -19   4   10.70    9.40
   0 -19   4   -6.30    7.60
   0  19   4   22.90   42.20
   0  19   4   10.80    7.30
   0  19  -4   10.30   76.09
   0  19  -4    1.00    4.90
   1 -19   4    8.30    8.90
  -1 -19  -4    2.00    5.90
  -1 -19  -4   -8.10    3.40
   1 -19   4  -45.60   32.70
   1 -19   4    3.00    4.90
  -1 -19  -4   -8.00    5.10
   1  19   4  -72.59   42.40
  -1  19  -4   -3.00    5.10
   1 -20  -4   27.10    9.90
  -1 -20   4   18.20    8.50
   1 -20  -4   32.90    8.70
  -1 -20   4   20.50   11.40
  -1  20   4   16.10    8.90
   1  20  -4  -75.29   75.89
  -1  20   4  -30.80   46.40
   1  20  -4    8.50    8.30
   0 -20  -4   -3.50    6.50
   0 -20  -4   17.00    7.50
   0 -20  -4   -0.80    5.40
   0 -20   4    3.50    5.00
   0 -20   4    9.60    8.50
   0 -20   4   59.99   36.00
   0  20   4   17.40   10.60
   0  20  -4   11.90    8.70
   0  20   4   57.29   39.70
   0  20  -4  -88.19   67.79
   1 -20   4    5.00    6.80
  -1 -20  -4   -6.00    4.80
  -1 -20  -4    3.00    4.90
   1 -20   4   25.20   43.20
   1 -20   4    3.80    6.00
  -1  20  -4   -2.60   85.19
  -1  20  -4    2.60    6.80
   1  20   4   -6.10    4.70
   1  20   4  -97.89   89.89
   0 -21  -4   72.79   14.80
   0 -21  -4  102.89   19.50
   0 -21   4   57.59   16.20
   0  21   4   72.59   18.50
   0  21  -4   58.49   13.60
  -3   0   5    0.60    1.60
   3   0  -5  -11.80   20.70
  -3   0   5    0.20    1.50
   2   0  -5   -1.80    9.80
  -2   0   5   -1.10    8.30
  -2   0   5    0.80    1.40
  -2   0   5    2.80    2.00
   1   0  -5    0.20    1.30
  -1   0   5   10.70    6.70
   1   0  -5    2.20    6.00
   0   0  -5   -1.50    1.40
   0   0   5   -2.90    6.90
   0   0   5    0.20    1.90
   0   0  -5   -2.00    9.50
  -1   0  -5    0.80    2.30
   1   0   5   -0.10    1.20
  -1   0  -5    0.60    1.70
  -1   0  -5    5.40   11.10
  -2   0  -5  -11.00    9.00
   2   0   5   -0.30    2.10
  -2   0  -5   -3.10    1.70
   2   0   5    6.30   14.30
  -2   0  -5    2.10    1.50
   3   0   5  -22.40   26.30
  -3   0  -5  -10.60   16.20
   3   0   5    5.30    4.30
  -3   0  -5   -4.80    2.60
   4   0   5   -7.00    4.40
   4   0   5   19.40   82.09
  -4   0  -5   -0.70    5.20
   4  -1  -5   43.20    9.80
  -4  -1   5   70.29    7.20
  -4  -1   5   43.40    6.30
  -3  -1   5   -1.20   11.30
   3  -1  -5    9.40   14.00
  -3  -1   5    2.00    2.10
   3   1  -5   20.70   26.80
  -2  -1   5   12.70    4.10
   2  -1  -5    6.90   11.40
  -2  -1   5   13.50    3.50
  -2  -1   5   25.10   15.90
  -2   1   5    8.50    2.50
  -2   1   5   18.50   10.70
  -2   1   5   10.90    3.00
   2   1  -5   -2.80   13.30
  -1  -1   5    0.80    1.60
   1  -1  -5    2.30    1.60
   1  -1  -5   -2.40    6.40
   1   1  -5   -6.10    8.50
  -1   1   5    3.10    2.00
  -1   1   5   -3.70    7.50
   1   1  -5    1.40    1.70
   0  -1  -5 2110.79  118.99
   0  -1   5 2001.70   63.19
   0  -1  -5 1826.92   62.09
   0  -1   5 1959.90  123.99
   0   1  -5 1894.01  119.39
   0   1  -5 1875.91   62.49
   0   1   5 1961.70  117.99
  -1  -1  -5  415.86   55.29
   1  -1   5  407.56   21.20
  -1  -1  -5  420.46   20.40
  -1  -1  -5  425.56   21.70
   1  -1   5  428.46   57.69
   1   1   5  409.96   21.30
  -1   1  -5  429.76   21.70
  -1   1  -5  349.67   51.89
   1   1   5  431.26   57.59
  -2  -1  -5  186.28   15.10
  -2  -1  -5  153.48   43.00
   2  -1   5  177.18   14.40
   2  -1   5  215.28   44.20
   2   1   5  177.58   14.70
   2   1   5  137.89   41.40
  -2   1  -5  209.68   42.60
  -2   1  -5  185.88   14.70
  -2   1  -5  183.38    9.00
  -3  -1  -5    6.10    4.70
   3  -1   5   15.40    6.70
   3   1   5   53.09   28.40
  -3   1  -5   24.20    7.10
   3   1   5   10.60    5.60
   4  -1   5    7.60    7.30
  -4  -1  -5   22.80    8.90
   4  -1   5  119.19   71.49
   4   1   5   14.30   66.39
  -4   1  -5    6.30    6.70
  -4  -2   5    9.50    4.20
   4  -2  -5    8.40    5.50
   4   2  -5  105.19   52.79
  -3  -2   5   36.20    6.20
  -3  -2   5   33.50    6.60
  -3  -2   5   29.80   21.00
   3   2  -5   57.19   27.70
  -2  -2   5  214.28   38.60
  -2  -2   5  189.08   13.90
   2  -2  -5  235.38   30.70
  -2  -2   5  187.98   12.30
  -2   2   5  212.38    9.80
  -2   2   5  229.78   28.40
  -2   2   5  209.88    9.50
   2   2  -5  188.18   48.50
   1  -2  -5 1301.07   80.29
  -1  -2   5 1337.57  102.29
  -1  -2   5 1369.16   45.30
   1  -2  -5 1259.77   41.70
   1   2  -5 1341.37   44.70
  -1   2   5 1221.58   41.60
  -1   2   5 1266.57   84.49
   1   2  -5 1305.77  100.19
   0  -2  -5  616.44   60.09
   0  -2   5  619.24   67.09
   0  -2  -5  612.24   25.80
   0  -2   5  680.33   27.50
   0   2  -5  645.44   67.29
   0   2   5  648.74   26.10
   0   2   5  677.23   63.19
   0   2  -5  652.93   27.00
   1  -2   5  290.97   17.30
  -1  -2  -5  280.37   17.10
   1  -2   5  292.17   48.50
  -1  -2  -5  283.37   16.40
  -1  -2  -5  304.77   45.30
  -1   2  -5  290.67   56.89
  -1   2  -5  276.97   16.90
   1   2   5  282.87   17.10
   1   2   5  284.97   45.30
   2  -2   5  613.44   29.50
  -2  -2  -5  574.84   29.80
  -2  -2  -5  599.84   72.19
  -2  -2  -5  601.64   23.90
   2  -2   5  638.94   76.59
  -2   2  -5  561.24   28.70
  -2   2  -5  583.64   72.99
  -2   2  -5  574.54   20.10
   2   2   5  585.14   30.10
   2   2   5  532.05   70.69
  -3  -2  -5    3.90    3.90
   3  -2   5   10.90    4.80
   3  -2   5   41.60   32.90
  -3   2  -5   -1.80   25.60
   3   2   5    6.30    5.70
  -3   2  -5    7.40    4.20
  -4  -2  -5   10.40    7.90
   4  -2   5  -60.69   69.69
   4  -2   5   29.60    9.30
   4   2   5  187.98   95.09
   4   2   5   20.60    9.70
  -4   2  -5   17.10    6.60
  -3  -3   5   -2.30   21.50
  -3  -3   5   10.40    5.40
   3  -3  -5   12.20    5.00
  -3  -3   5    6.90    2.90
   3   3  -5  -21.30   20.60
  -2  -3   5  209.98   13.70
   2  -3  -5  236.48   23.80
  -2  -3   5  195.88   15.20
  -2  -3   5  196.78   38.20
  -2   3   5  268.17    7.60
  -2   3   5  199.28   23.10
   2   3  -5  219.48   47.00
  -1  -3   5 1295.47   56.09
   1  -3  -5 1347.27   42.30
   1  -3  -5 1317.47   77.69
  -1  -3   5 1377.46  108.59
  -1   3   5 1125.29   41.00
  -1   3   5 1358.16   84.09
   1   3  -5 1391.66  108.29
   1   3  -5 1404.56   46.40
   0  -3   5    1.00    1.70
   0  -3  -5   -8.50    5.80
   0  -3  -5    1.30    1.90
   0  -3   5    5.50    6.20
   0  -3  -5    1.40    1.80
   0   3  -5    0.50    2.00
   0   3   5   15.70    7.70
   0   3   5   -0.30    1.30
   0   3  -5   -3.10    5.90
  -1  -3  -5 1839.82   65.39
  -1  -3  -5 1868.21   64.39
   1  -3   5 1912.51   64.99
   1  -3   5 2017.10  137.89
  -1  -3  -5 1967.90  125.69
  -1   3  -5 1826.32  127.19
  -1   3  -5 1900.91   64.89
   1   3   5 1873.41  128.59
   1   3   5 2073.09   66.79
  -2  -3  -5   69.39   10.70
   2  -3   5   69.19   23.80
  -2  -3  -5   78.49   35.80
   2  -3   5   55.59    9.10
  -2  -3  -5   59.39    6.60
  -2   3  -5   63.29    4.30
   2   3   5   68.79   35.70
  -2   3  -5   51.49   33.50
   2   3   5   63.99   11.00
  -2   3  -5   60.89    4.40
  -2   3  -5   65.99   10.10
  -3  -3  -5   88.49   13.80
   3  -3   5  188.78   54.59
   3  -3   5  107.49   12.50
  -3   3  -5  101.89   40.50
   3   3   5   82.69   13.80
   3   3   5  139.29   48.20
  -3   3  -5   93.79   13.80
   4  -3   5   56.19   10.70
   4  -3   5  126.89   76.79
  -4  -3  -5   60.39   13.00
   4   3   5   68.79   15.30
  -4   3  -5   47.10   10.90
  -3  -4   5   -5.50   11.30
   3  -4  -5    4.30    4.80
  -3  -4   5    0.20    2.50
  -3  -4   5    3.50    3.30
   3   4  -5   10.50   22.60
   3   4  -5    0.60    3.70
   2  -4  -5   30.10    8.00
  -2  -4   5   86.59   29.50
  -2  -4   5   34.30    6.60
  -2  -4   5   33.30    7.80
   2   4  -5   61.89   28.10
   1  -4  -5  184.38    9.70
   1  -4  -5  179.08   15.20
  -1  -4   5  155.98   43.80
  -1  -4   5  170.78   12.10
   1  -4  -5  174.88   25.40
   1   4  -5  210.38   41.40
   1   4  -5  184.18   13.30
  -1   4   5  172.98   27.90
   0  -4   5  584.64   66.19
   0  -4  -5  555.44   28.00
   0  -4   5  652.33   27.10
   0  -4  -5  581.24   55.79
   0  -4  -5  600.94   25.20
   0   4   5  576.54   24.50
   0   4   5  559.04   57.29
   0   4  -5  599.74   26.00
   0   4  -5  491.35   64.49
  -1  -4  -5   -2.10    1.30
   1  -4   5    3.00    2.80
  -1  -4  -5   -2.30    1.80
   1  -4   5  -14.80   10.70
  -1  -4  -5    2.00    6.50
  -1   4  -5    1.60    2.20
  -1   4  -5    1.60   12.30
   1   4   5    1.60    8.90
   1   4   5    0.30    1.80
  -2  -4  -5    3.50    3.30
   2  -4   5    3.70    2.80
   2  -4   5  -24.40   15.50
  -2  -4  -5    8.10    2.90
  -2  -4  -5    4.50   14.00
  -2   4  -5    2.30    1.20
  -2   4  -5   15.10   16.80
  -2   4  -5    1.40    2.90
   2   4   5    0.50    2.90
   3  -4   5  788.22  109.39
  -3  -4  -5  869.41   32.70
  -3  -4  -5  928.11   44.90
   3  -4   5  853.71   40.80
   3   4   5  972.80  110.09
  -3   4  -5  978.90  104.59
  -3   4  -5  848.42   40.40
   3   4   5  852.81   44.40
   4  -4   5  223.48  107.69
   3  -5  -5   21.40    7.50
  -3  -5   5   10.80    5.10
  -3  -5   5    8.80    5.00
  -3  -5   5   37.10   26.80
   3   5  -5   16.00    6.60
   3   5  -5   45.20   35.00
  -2  -5   5  420.46   25.20
   2  -5  -5  437.76   26.60
  -2  -5   5  414.76   61.79
  -2  -5   5  408.46   21.90
   2   5  -5  412.06   62.99
   1  -5  -5  198.68   16.30
   1  -5  -5  168.38   23.80
  -1  -5   5  228.28   14.40
   1  -5  -5  214.58   10.70
  -1  -5   5  197.08   42.40
   1   5  -5  207.88   13.70
  -1   5   5  231.08   30.50
   1   5  -5  162.98   49.20
   0  -5  -5   14.10    7.50
   0  -5   5    8.20    3.50
   0  -5   5   15.40   18.70
   0  -5  -5    9.00    4.40
   0  -5  -5    6.40    2.90
   0   5  -5   -5.10   11.40
   0   5  -5    8.80    3.10
   0   5   5    7.00    9.50
   0   5   5    8.90    3.10
  -1  -5  -5 1325.57   49.40
   1  -5   5 1216.98  109.39
   1  -5   5 1273.47   48.00
  -1  -5  -5 1264.17   48.10
  -1  -5  -5 1375.76  101.89
   1   5   5 1170.78   48.30
   1   5   5 1365.26   49.60
   1   5   5 1242.38  104.59
  -1   5  -5 1266.37   47.60
  -1   5  -5 1234.98  107.29
  -2  -5  -5   37.00    8.50
   2  -5   5   18.70   24.40
   2  -5   5   22.60    6.50
  -2  -5  -5   21.70    5.40
  -2   5  -5   27.90    6.70
   2   5   5   26.80    6.50
  -2   5  -5   32.00    3.50
   2   5   5   24.40    7.10
  -3  -5  -5  140.79   11.30
   3  -5   5  142.49   14.10
   3  -5   5  146.09   52.29
  -3  -5  -5  141.99   15.80
   3   5   5  154.28   49.00
   3   5   5  147.69   16.70
   3   5   5   99.49   37.00
  -3   5  -5  177.08   49.90
  -3   5  -5  141.69   14.30
  -3  -6   5    5.80    4.30
  -3  -6   5  -23.90   16.90
  -3  -6   5   -1.20    2.80
   3  -6  -5   -0.70    3.30
   3   6  -5   -5.50    4.00
  -2  -6   5  292.27   21.40
  -2  -6   5  294.07   18.40
   2  -6  -5  321.67   21.90
  -2  -6   5  336.37   55.09
   2   6  -5  253.37   20.40
   2   6  -5  361.16   85.09
   1  -6  -5  135.39   13.40
   1  -6  -5  149.99    8.90
  -1  -6   5  149.39   12.10
  -1  -6   5  157.88   44.00
   1   6  -5  143.29   11.60
  -1   6   5  159.68   24.50
   1   6  -5  167.98   47.20
   0  -6  -5  812.42   36.60
   0  -6  -5  850.01   68.39
   0  -6   5  769.32   87.69
   0  -6   5  773.72   33.50
   0  -6  -5  825.42   32.50
   0   6  -5  840.62   33.80
   0   6   5  781.72   33.90
   0   6  -5  790.72   86.99
   0   6   5  843.82   73.89
  -1  -6  -5  159.28   33.30
   1  -6   5  208.38   56.49
  -1  -6  -5  120.29   11.50
  -1  -6  -5  129.69   11.80
   1  -6   5  122.49   11.30
   1   6   5  103.89   11.30
  -1   6  -5  127.09   40.70
  -1   6  -5  127.59   10.10
   1   6   5  143.99   42.60
  -1   6  -5  128.69   11.20
   1   6   5  114.19   11.40
  -2  -6  -5  286.07   21.10
   2  -6   5  314.97   20.20
   2  -6   5  340.37   66.99
  -2  -6  -5  318.87   19.00
   2   6   5  274.27   19.10
  -2   6  -5  299.37   19.40
   2   6   5  297.47   22.00
  -2   6  -5  336.57   13.90
   2   6   5  361.26   58.39
   3  -6   5   31.40   45.30
  -3  -6  -5   14.80    6.40
  -3  -6  -5    8.10    4.30
   3  -6   5    7.60    4.70
  -3   6  -5   19.90    7.00
   3   6   5    9.40   24.50
   3   6   5   15.50    7.40
   3   6   5   44.10   30.10
  -3   6  -5   16.80   23.80
  -3  -7   5    9.60   20.30
  -3  -7   5   -4.20    3.20
  -3  -7   5    7.30    5.00
   3  -7  -5    6.90    4.30
   3   7  -5    6.70   28.00
   3   7  -5   -3.40    4.70
   2  -7  -5   67.99   12.00
  -2  -7   5   61.89   11.80
  -2  -7   5   76.19   10.80
  -2  -7   5   78.19   39.00
   2   7  -5   78.19   13.00
   2   7  -5   77.99   40.20
  -1  -7   5   72.09   28.40
   1  -7  -5   39.40    8.30
   1  -7  -5   35.40    4.20
  -1  -7   5   41.30    7.80
   1   7  -5   39.40    7.50
  -1   7   5   29.20   12.20
   1   7  -5   38.30    8.60
   1   7  -5   59.19   34.80
  -1   7   5   29.40   13.40
   0  -7   5  820.62   35.60
   0  -7  -5  851.81   34.20
   0  -7  -5  835.42   38.40
   0  -7   5  882.51   94.69
   0   7  -5  826.52   92.69
   0   7  -5  874.31   37.00
   0   7   5  880.11   76.59
   0   7   5  924.81   38.00
   0   7   5  792.72   38.40
   0   7  -5  879.51   35.60
  -1  -7  -5   70.99   10.80
  -1  -7  -5   55.99    9.50
   1  -7   5  129.39   44.60
   1  -7   5   70.89    8.80
   1   7   5   71.39   11.40
  -1   7  -5   69.19   27.30
   1   7   5   71.79    9.00
  -1   7  -5   68.89    8.50
   1   7   5  107.29   37.10
  -1   7  -5   72.49    7.90
   2  -7   5   28.30   10.10
  -2  -7  -5   21.30    5.80
  -2  -7  -5   34.00    8.90
   2   7   5   24.60   19.60
   2   7   5   17.20    6.00
   2   7   5   19.90   28.50
   2   7   5    8.40    5.20
  -2   7  -5   42.50   22.80
  -2   7  -5   20.60    3.70
  -2   7  -5   18.10    5.70
   3  -7   5   60.89   11.10
   3  -7   5   64.09   51.79
  -3  -7  -5   55.79   12.40
  -3  -7  -5   54.49    9.10
   3   7   5   61.29   10.10
  -3   7  -5   59.89   10.80
  -3   7  -5   17.20   30.70
   3   7   5   37.80   31.00
   3   7   5   28.80   34.50
   3   7   5   58.79   12.90
  -3  -8   5   39.30   20.60
  -3  -8   5   26.20    7.10
  -3  -8   5   39.80    9.80
   3  -8  -5   30.60    8.10
   3   8  -5   13.80    7.10
   3   8  -5  -17.30   27.30
   2  -8  -5    8.90    4.50
  -2  -8   5    2.90    4.20
  -2  -8   5   56.19   28.80
   2   8  -5    1.20    3.50
   2   8  -5    3.10   20.80
   1  -8  -5  200.58   17.00
  -1  -8   5  252.37   52.39
  -1  -8   5  193.48   15.10
   1  -8  -5  215.78   11.70
  -1   8   5  211.38   28.30
   1   8  -5  232.78   49.70
   1   8  -5  215.28   15.60
  -1   8   5  216.18   31.70
   1   8  -5  228.68   17.80
   0  -8   5   -3.80   15.30
   0  -8  -5   23.90    5.50
   0  -8  -5   25.20    7.20
   0  -8   5   30.90    6.80
   0   8  -5   25.00    6.40
   0   8   5   24.80   14.50
   0   8   5   39.00   22.00
   0   8  -5   22.80    5.60
   0   8   5   22.80    5.70
   0   8   5   31.20    7.90
   0   8  -5   23.40   21.70
  -1  -8  -5  408.76   23.70
   1  -8   5  335.97   61.09
   1  -8   5  349.96   21.30
  -1  -8  -5  403.46   23.50
   1   8   5  313.47   52.29
  -1   8  -5  343.57   19.40
  -1   8  -5  408.56   22.20
   1   8   5  351.76   23.70
   1   8   5  368.16   23.10
   1   8   5  406.86   59.39
  -1   8  -5  353.86   62.99
  -2  -8  -5   28.20    7.00
   2  -8   5   52.39    9.60
  -2  -8  -5   60.69   11.20
   2  -8   5   29.20   38.40
   2   8   5   80.99   35.70
  -2   8  -5   48.70    7.50
  -2   8  -5   50.59   25.30
   2   8   5   70.69   38.20
  -2   8  -5   49.40    9.80
   2   8   5   40.30    9.10
   2   8   5   47.50   10.60
   3  -8   5   -4.70    2.70
   3  -8   5   12.90   44.80
  -3  -8  -5    2.10    3.70
  -3  -8  -5   -1.80    3.80
   3   8   5   -2.80    3.30
   3   8   5   -4.80   23.20
  -3   8  -5   -7.50   25.80
  -3   8  -5    5.80    4.10
   3   8   5   -3.50    5.10
   3  -9  -5   14.40    8.50
  -3  -9   5   27.50    7.50
  -3  -9   5   49.20   28.50
  -3  -9   5   22.40    8.20
   3   9  -5   11.50    6.30
   3   9  -5    3.10   38.10
  -2  -9   5   40.80   21.70
  -2  -9   5   11.90    5.60
  -2  -9   5    2.30    3.40
   2  -9  -5    8.70    4.10
   2   9  -5  -11.10    6.30
   2   9  -5    6.10   20.80
   1  -9  -5   12.00    5.70
  -1  -9   5   49.20   25.70
  -1  -9   5    7.40    3.80
   1  -9  -5   13.20    3.30
   1   9  -5   12.50    5.30
   1   9  -5   15.30   23.30
   1   9  -5   12.00    5.30
  -1   9   5   16.80   10.20
  -1   9   5   25.60   14.80
   0  -9   5    8.60    4.40
   0  -9   5   11.70   18.90
   0  -9  -5   11.50    5.00
   0   9   5    7.60    4.50
   0   9  -5   11.40    3.90
   0   9  -5   16.80    5.30
   0   9  -5   -3.70   19.80
   0   9   5   16.40    5.10
   0   9   5    8.60   10.80
   0   9   5   18.70   12.80
  -1  -9  -5    5.00    3.60
   1  -9   5   23.30   20.80
  -1  -9  -5    3.90    3.50
   1  -9   5    5.80    3.50
   1   9   5    5.30    4.10
  -1   9  -5    8.40   23.00
   1   9   5    1.70    3.90
  -1   9  -5    4.90    3.30
   1   9   5   -0.90   10.40
  -1   9  -5    5.00    3.10
   1   9   5   19.30    9.80
  -2  -9  -5   17.40    5.90
  -2  -9  -5   13.70    9.20
   2  -9   5   67.59   32.50
   2  -9   5   18.50    6.30
  -2   9  -5   35.80   25.10
  -2   9  -5    6.40    3.20
   2   9   5   12.30   18.20
   2   9   5    5.70    4.80
   2   9   5    8.70    4.50
  -2   9  -5   10.80    4.80
   2   9   5   13.80   18.00
   3  -9   5   29.10   51.29
  -3   9  -5   -7.10   26.90
   3   9   5   83.29   37.90
   3   9   5   21.00   31.60
  -3 -10   5   28.10    8.90
   3 -10  -5   50.39   10.70
  -3 -10   5   42.30    9.20
  -3 -10   5   27.80   28.60
   3  10  -5   41.90   11.00
  -2 -10   5   70.79   39.90
   2 -10  -5   52.09   11.40
  -2 -10   5   44.00   11.30
  -2 -10   5   38.40    8.70
   2  10  -5   42.40   10.20
   2  10  -5   20.50   34.50
   1 -10  -5  537.85   31.00
  -1 -10   5  566.94   29.10
  -1 -10   5  620.14   88.09
   1 -10  -5  546.65   23.10
   1  10  -5  549.25   31.10
   1  10  -5  575.34   29.00
  -1  10   5  508.35   50.89
  -1  10   5  494.65   23.60
  -1  10   5  525.65   52.99
   1  10  -5  474.75   86.19
   0 -10   5    8.90   20.50
   0 -10  -5   33.00    8.20
   0 -10   5   51.99    9.50
   0 -10  -5   22.40    5.80
   0  10   5   40.20    7.80
   0  10  -5   39.00    8.00
   0  10   5   35.40   17.40
   0  10  -5   27.00   23.80
   0  10  -5   25.70    6.40
   0  10   5   44.60   22.50
   0  10   5   19.40    7.20
   1 -10   5    1.80    2.20
  -1 -10  -5   -4.20    2.70
  -1 -10  -5    1.10    2.50
   1 -10   5   26.40   19.70
  -1  10  -5    0.50    2.80
   1  10   5   -1.10    2.50
  -1  10  -5    2.40    2.70
   1  10   5   -3.80   13.40
   1  10   5    1.10    3.40
  -1  10  -5   -9.10   12.70
   1  10   5  -12.80   14.40
  -2 -10  -5   28.70    8.80
  -2 -10  -5   22.80    6.80
   2 -10   5   43.50   38.20
   2 -10   5   32.30    7.20
   2  10   5   20.30    7.60
  -2  10  -5  -12.90   21.70
   2  10   5   20.90    7.00
  -2  10  -5   20.30    6.00
   2  10   5   21.10   22.20
  -2  10  -5   19.50    4.80
   2  10   5  -11.50   16.50
   3 -10   5   35.80   67.89
   3 -10   5  101.29   12.50
  -3 -10  -5   97.29   15.50
  -3 -10  -5   87.99   16.10
   3  10   5   88.69   14.60
   3  10   5   93.09   44.00
  -3  10  -5   85.69   12.60
  -3  10  -5   50.69   40.10
   3  10   5   92.89   18.10
   3  10   5   40.30   35.00
  -3 -11   5   10.70    5.60
   3 -11  -5   14.50    6.50
  -3 -11   5   14.00    7.30
   3  11  -5    4.20    6.00
  -2 -11   5   21.30    7.00
   2 -11  -5   23.90    7.80
  -2 -11   5   45.00   25.20
  -2 -11   5   27.10    7.20
   2  11  -5   18.80    6.80
   2  11  -5  -11.80   27.20
  -1 -11   5  104.89   49.00
  -1 -11   5  114.39   12.70
   1 -11  -5  133.99   10.10
   1 -11  -5  131.49   14.60
  -1  11   5  133.69   26.20
  -1  11   5  103.49   13.30
   1  11  -5  136.49   51.39
   1  11  -5  109.79   13.50
  -1  11   5  132.79   35.80
   0 -11  -5   11.60    4.30
   0 -11   5    8.80    4.40
   0 -11  -5    6.70    3.60
   0 -11   5   53.79   24.10
   0  11   5   -8.10    8.70
   0  11  -5   -6.20   14.10
   0  11   5    2.10    3.30
   0  11   5    8.50    5.10
   0  11   5   12.30   13.90
   0  11  -5    5.60    3.60
   0  11  -5    5.20    3.40
  -1 -11  -5  165.88   15.80
   1 -11   5  283.77   62.19
  -1 -11  -5  184.18   16.80
   1 -11   5  176.68   16.20
  -1  11  -5  172.18   14.50
  -1  11  -5  164.38   54.89
   1  11   5  232.48   61.69
   1  11   5  219.08   47.00
   1  11   5  164.98   16.60
  -1  11  -5  186.28   15.20
   1  11   5  192.38   18.80
  -2 -11  -5  303.27   22.20
  -2 -11  -5  315.67   24.20
   2 -11   5  244.28   19.20
   2 -11   5  406.66   99.69
  -2  11  -5  296.47   77.09
  -2  11  -5  310.67   20.60
   2  11   5  247.38   21.80
   2  11   5  285.47   24.50
   2  11   5  303.87   58.79
  -2  11  -5  291.37   17.80
   2  11   5  366.66   63.69
  -3 -11  -5   43.40   10.40
   3 -11   5   78.09   51.59
   3 -11   5   49.20   10.70
  -3 -11  -5   60.49   13.10
   3  11   5   37.80    9.70
   3  11   5  116.59   52.49
  -3  11  -5   47.70    9.60
  -3  11  -5    0.40   42.70
  -3 -12   5    3.50    5.30
  -3 -12   5    2.80    5.00
   3 -12  -5   22.70    6.40
   3  12  -5    6.00    6.50
   2 -12  -5   51.89   10.90
  -2 -12   5   81.39   37.50
  -2 -12   5   65.89   15.00
  -2 -12   5   60.89   13.70
   2  12  -5   36.00    9.60
   2  12  -5   77.19   44.90
  -1 -12   5   11.70    5.50
   1 -12  -5    6.10    3.60
   1 -12  -5    6.80    3.10
  -1 -12   5   -2.40   18.70
  -1 -12   5    6.90    5.70
   1  12  -5    2.20    4.00
  -1  12   5    4.50   11.60
  -1  12   5   29.40   11.70
   1  12  -5  -16.40   22.50
  -1  12   5    1.20    4.20
   0 -12  -5   22.00    8.40
   0 -12   5   39.90   32.30
   0 -12   5   36.70    8.20
   0 -12  -5   31.40    7.60
   0  12   5   27.20   16.30
   0  12   5   31.50    9.30
   0  12  -5   25.90    7.40
   0  12  -5   -3.80   26.90
   0  12   5   32.80   19.20
   0  12  -5   37.30    8.00
   0  12   5   45.70    9.50
   1 -12   5    6.80    4.50
   1 -12   5   16.00   26.20
  -1 -12  -5    7.50    5.20
  -1 -12  -5    1.10    3.70
  -1  12  -5   -1.40   22.00
   1  12   5    9.70   15.90
   1  12   5    1.10    2.90
  -1  12  -5    1.80    3.40
   1  12   5    6.00   21.80
   1  12   5   -1.10    2.70
  -1  12  -5    4.20    2.60
  -2 -12  -5  144.59   15.90
  -2 -12  -5  156.78   17.80
   2 -12   5  151.78   14.90
   2 -12   5  251.47   76.09
  -2  12  -5  167.88   60.29
  -2  12  -5  169.28   13.70
   2  12   5  118.79   57.19
  -2  12  -5  155.28   14.40
   2  12   5  166.58   18.20
   2  12   5  150.88   56.99
   2  12   5  124.09   18.90
   3 -12   5   72.19   12.40
  -3 -12  -5   47.20   12.40
  -3 -12  -5   39.60    9.60
  -3  12  -5   53.39   10.10
  -3  12  -5    4.10   41.60
   3  12   5   41.10   10.80
   3  12   5   60.09   15.80
   3  12   5   54.29   55.29
   3  12   5   98.29   55.59
  -3 -13   5    3.20    6.50
  -3 -13   5  -14.70    6.40
   3 -13  -5   -3.10    5.50
   3  13  -5   -3.50    5.40
   2 -13  -5  130.59   15.20
  -2 -13   5  160.18   19.20
  -2 -13   5  135.99   15.00
  -2 -13   5   98.89   54.39
   2  13  -5  240.78   69.39
   2  13  -5  138.19   17.20
   1 -13  -5   10.00    4.00
   1 -13  -5   16.00    7.30
  -1 -13   5   13.70   23.00
  -1 -13   5    5.80    4.10
  -1 -13   5    8.10    5.50
   1  13  -5   36.60   29.80
  -1  13   5   15.30   16.40
  -1  13   5    4.60    5.30
  -1  13   5   -2.30   13.60
   1  13  -5   12.10    6.50
   0 -13   5  -30.90   18.90
   0 -13  -5    3.60    3.10
   0 -13  -5    2.90    3.70
   0  13   5   -9.80   11.60
   0  13   5    1.70    2.70
   0  13   5    4.60    3.70
   0  13  -5    1.20    3.60
   0  13  -5   33.00   32.90
   0  13  -5   -0.90    3.90
   0  13   5    1.20    9.80
  -1 -13  -5   20.40    7.20
  -1 -13  -5   14.90    7.00
   1 -13   5   32.30    8.20
   1 -13   5   29.60   25.40
  -1  13  -5    7.30   27.70
  -1  13  -5   21.30    6.80
   1  13   5   20.50    7.70
   1  13   5   10.40   26.50
   1  13   5    9.10   24.10
  -1  13  -5   22.20    6.70
   1  13   5   11.50    5.80
  -2 -13  -5  154.28   17.00
  -2 -13  -5  176.88   18.60
   2 -13   5  137.99   15.00
   2 -13   5  156.38   60.99
   2  13   5  311.57   79.49
   2  13   5  160.38   19.60
   2  13   5  133.79   45.90
   2  13   5  121.19   18.70
  -2  13  -5  171.58   15.10
  -2  13  -5  172.18   14.60
  -2  13  -5  103.59   48.20
   3  13   5   83.99   57.49
  -3 -14   5   19.90   12.20
   3 -14  -5    9.80    6.40
  -3 -14   5    4.00    7.10
   3  14  -5   -8.30    6.70
  -2 -14   5    6.00    5.60
   2 -14  -5   22.60    7.60
  -2 -14   5   65.89   42.50
  -2 -14   5   15.40    6.20
   2  14  -5   11.10    8.30
   2  14  -5   24.20   41.00
   1 -14  -5   17.10    6.90
   1 -14  -5   30.10    6.50
   1 -14  -5   33.00    6.10
  -1 -14   5   23.80    7.40
  -1 -14   5   37.30   36.90
  -1 -14   5   26.40    9.30
  -1  14   5   24.30    9.30
   1  14  -5   38.30   37.30
  -1  14   5   58.89   27.40
   1  14  -5   29.80    8.90
  -1  14   5   24.70   18.10
   0 -14  -5   17.60    7.10
   0 -14   5   20.00    6.80
   0 -14   5   23.30   32.20
   0 -14  -5   24.60    7.40
   0  14   5   35.90    9.50
   0  14   5   20.20   22.60
   0  14  -5   21.00    7.10
   0  14   5   30.60   28.90
   0  14  -5   60.59   39.90
   0  14  -5   44.50    9.60
   0  14   5   32.50    9.80
   1 -14   5   69.09   11.70
  -1 -14  -5   64.89   12.70
   1 -14   5   26.60   33.20
  -1 -14  -5   47.30   11.10
  -1  14  -5   45.60    9.60
  -1  14  -5   61.49   42.90
   1  14   5   73.49   46.20
  -1  14  -5   50.49   10.50
   1  14   5   53.69   12.70
   1  14   5   72.99   30.20
   1  14   5   42.10   11.20
   2 -14   5  138.89   63.79
   2 -14   5  144.49   15.30
  -2 -14  -5  138.29   17.50
  -2 -14  -5  163.08   18.20
  -2  14  -5  229.98   67.39
  -2  14  -5  164.08   15.40
   2  14   5  140.79   17.50
   2  14   5  192.58  104.49
   2  14   5  121.29   19.50
   2  14   5  193.28   59.99
  -2  14  -5  150.48   14.90
  -3  14  -5  -26.60   56.79
   3  14   5   57.69   72.79
   2 -15  -5    3.00    1.50
   2 -15  -5    8.60    2.10
   2 -15  -5   -0.30    5.60
  -2 -15   5    7.30    6.60
  -2 -15   5  -21.50   43.20
   2  15  -5   97.79   67.39
   2  15  -5    2.90    4.80
  -1 -15   5   58.99   30.50
  -1 -15   5   15.40    9.90
   1 -15  -5   11.90    4.60
   1 -15  -5   10.90    4.40
  -1 -15   5    3.40    5.30
   1 -15  -5   21.20    8.00
   1  15  -5   53.29   61.79
   1  15  -5   11.00    6.80
  -1  15   5   12.80    7.20
  -1  15   5   32.70   17.90
  -1  15   5   -8.80   15.30
   0 -15   5  496.05   86.59
   0 -15  -5  478.05   31.40
   0 -15  -5  466.75   27.80
   0 -15   5  409.86   27.40
   0  15  -5  538.75  104.39
   0  15   5  421.66   64.69
   0  15   5  407.06   28.20
   0  15   5  405.16   68.09
   0  15  -5  487.95   31.00
   0  15   5  406.86   31.90
   0  15  -5  447.66   27.50
  -1 -15  -5   77.89   14.20
   1 -15   5   68.49   12.50
  -1 -15  -5   78.19   14.30
   1 -15   5   48.20   32.90
  -1  15  -5   38.00   46.10
  -1  15  -5   62.29   10.80
   1  15   5   23.30   43.10
   1  15   5   35.60   35.30
  -1  15  -5   75.29   20.50
   1  15   5   62.09   12.70
   1  15   5   47.60   12.30
   2 -15   5   13.10    6.40
  -2 -15  -5    5.60    5.80
  -2 -15  -5    4.90    7.60
   2 -15   5  101.79   41.30
   2  15   5   -6.90   40.60
   2  15   5   24.10    7.70
   2  15   5   15.80    8.20
  -2  15  -5   15.40    6.50
  -2  15  -5   64.69   36.70
   2  15   5   18.30   49.99
  -2  15  -5   15.00    5.80
   2 -16  -5   -2.90    5.10
   2 -16  -5    1.50    1.80
  -2 -16   5   64.79   44.80
  -2 -16   5   -4.10    6.20
  -2 -16   5    3.50    5.80
   2 -16  -5   -0.60    1.30
   2  16  -5    0.40    6.10
   2  16  -5    6.20   45.60
   1 -16  -5    6.50    3.70
  -1 -16   5   56.29   50.09
  -1 -16   5   21.60    8.80
   1 -16  -5   15.60    5.60
   1 -16  -5    7.10    6.10
  -1 -16   5    2.60    4.40
  -1  16   5   23.80   15.30
   1  16  -5   19.60   46.10
  -1  16   5  -22.60   21.60
  -1  16   5    6.20    6.00
   1  16  -5   13.20    6.70
   0 -16  -5   49.70    9.90
   0 -16  -5   39.80   10.80
   0 -16   5   24.30   29.10
   0 -16   5   46.70   10.70
   0  16  -5  -18.40   38.10
   0  16  -5   45.50   10.60
   0  16   5   44.60   12.90
   0  16   5   16.10   29.00
   0  16   5   20.60   31.10
   1 -16   5  306.47   23.60
  -1 -16  -5  333.57   27.40
   1 -16   5  468.65   86.89
  -1 -16  -5  381.46   33.20
   1  16   5  251.57   69.29
   1  16   5  323.77   27.60
  -1  16  -5  312.77   85.69
  -1  16  -5  350.66   25.50
  -1  16  -5  290.57   22.10
   1  16   5  307.67   28.50
   1  16   5  518.25  115.89
   2 -16   5   42.30   46.70
  -2 -16  -5   63.29   14.10
  -2 -16  -5   59.79   13.40
   2  16   5   75.69   53.29
  -2  16  -5   82.59   13.60
   2  16   5   51.49   15.30
   2  16   5   48.30   12.60
   2  16   5   64.69   62.89
  -2  16  -5   75.89   11.90
  -2 -17   5   -8.10    4.70
   2 -17  -5   -0.20    1.80
  -2 -17   5  -16.30   44.00
  -2 -17   5   11.60    8.90
   2 -17  -5   -6.00    5.90
   2 -17  -5    1.40    2.50
   2  17  -5  -14.40    5.70
   2  17  -5   -5.20   96.39
   1 -17  -5  180.58   14.30
  -1 -17   5  176.38   18.50
   1 -17  -5  159.68   19.50
  -1 -17   5  261.77   86.09
  -1 -17   5  193.08   23.00
   1 -17  -5  219.18   16.30
   1  17  -5  162.18   20.20
  -1  17   5  163.28   50.89
  -1  17   5  137.09   21.80
   1  17  -5  271.27   97.29
   0 -17  -5   -5.30    4.90
   0 -17  -5    1.80    4.50
   0 -17   5    2.50    4.70
   0 -17   5    5.30    5.70
   0 -17   5    9.10   34.00
   0  17  -5   -0.30    3.80
   0  17   5   24.80   23.40
   0  17   5    7.10    7.20
   0  17  -5   50.39   37.40
   0  17   5  -24.70   31.70
  -1 -17  -5    0.10    5.90
   1 -17   5    1.30    5.40
  -1 -17  -5    2.50    5.20
   1 -17   5   33.40   25.70
   1  17   5   12.60    6.30
  -1  17  -5   13.40    5.30
   1  17   5   26.50   55.39
  -1  17  -5  -42.40   39.70
   1  17   5   -1.30    7.00
  -1  17  -5    8.10    5.90
  -2 -17  -5   34.20   11.50
   2 -17   5   60.19   50.59
  -2 -17  -5   62.99   14.50
   2 -17   5   41.90   10.30
  -2  17  -5   76.19   12.50
   2  17   5   74.69   16.30
  -2  17  -5   46.20   10.90
   2  17   5  109.89   64.19
  -2  17  -5  -26.00   61.19
  -2 -18   5  164.38   92.79
   2 -18  -5   48.10   16.00
  -2 -18   5   47.70   15.40
  -2 -18   5   35.90   12.60
   2 -18  -5   81.59    7.00
   2  18  -5   16.60   82.59
   1 -18  -5  267.07   19.30
  -1 -18   5  380.36  107.89
   1 -18  -5  257.27   25.20
  -1 -18   5  243.18   26.40
  -1 -18   5  241.58   23.00
   1 -18  -5  241.48   17.60
   1  18  -5  267.97   32.30
   1  18  -5  264.57   99.49
  -1  18   5  254.67   26.20
  -1  18   5  171.28   54.89
   0 -18   5   52.79   13.80
   0 -18  -5   73.09   12.60
   0 -18   5   77.39   43.00
   0 -18   5   71.09   13.10
   0 -18  -5   75.29   13.50
   0 -18  -5   76.09   15.80
   0  18   5   55.39   13.50
   0  18  -5   72.09   13.70
   0  18   5   29.30   44.30
   0  18  -5    7.40   55.79
  -1 -18  -5    8.30    6.70
   1 -18   5   54.79   30.80
  -1 -18  -5    5.10    7.70
   1 -18   5    4.10    6.30
   1  18   5    0.40    8.10
  -1  18  -5    9.50    6.30
   1  18   5    3.30    7.50
   1  18   5   22.70   50.89
  -2 -18  -5  -16.10    6.70
   2  18   5  -81.49   70.09
   2  18   5    1.90    7.00
  -2  18  -5    4.30    5.90
  -1 -19   5   75.29   47.50
   1 -19  -5   -1.80    3.80
   1 -19  -5    1.90    4.70
  -1 -19   5  -10.10    7.20
  -1 -19   5  -12.40    4.90
  -1  19   5  -16.70    6.50
   1  19  -5    3.50    7.10
   1  19  -5    7.10   53.79
   0 -19  -5    8.20    6.50
   0 -19   5   21.50   33.30
   0 -19   5   -5.50    7.90
   0 -19  -5    1.60    5.80
   0 -19   5   -0.90    4.70
   0 -19  -5  -11.10    4.80
   0  19   5  -37.80   43.60
   0  19   5    5.50    6.70
   0  19  -5    8.20    6.10
   0  19  -5  -15.40   72.99
  -1 -19  -5   30.40   11.80
   1 -19   5   44.50   11.10
  -1 -19  -5   16.30    8.20
   1 -19   5   12.20    9.40
   1 -19   5    2.00   39.90
   1  19   5  -29.40   63.89
  -1  19  -5  -75.79   55.89
  -1  19  -5   28.70   10.90
   1  19   5   37.70   13.50
  -1 -20   5   11.40   51.39
  -1 -20   5   -3.00    8.30
   1 -20  -5    8.30    7.50
   1  20  -5  -16.50   78.59
  -1  20   5  -17.00   47.90
   0 -20   5   10.70    5.50
   0 -20   5    3.50    8.90
   0 -20  -5   10.20    8.30
   0 -20  -5    3.90    6.90
   0 -20   5   -1.70   47.50
   0 -20  -5    9.60    6.20
   0  20   5  -35.80   50.99
   0  20  -5    0.10    6.10
   0  20   5   10.40    7.90
   0  20  -5   -9.00   71.69
  -1  20  -5   32.00    9.50
  -3   0   6  202.08   11.60
  -3   0   6  184.18   10.80
  -3   0   6  154.38   31.60
   3   0  -6  128.29   40.30
  -2   0   6  111.39    8.70
  -2   0   6  116.89    9.80
   2   0  -6  172.08   32.40
  -2   0   6  141.29   39.60
  -1   0   6  357.46   50.79
   1   0  -6  312.17   16.10
   1   0  -6  289.77   42.80
  -1   0   6  320.37   16.60
   0   0   6 1353.66  106.89
   0   0  -6 1281.57   48.40
   0   0   6 1411.66   49.50
   0   0  -6 1550.64  109.89
  -1   0  -6 1689.53  124.89
   1   0   6 1610.14   57.49
  -1   0  -6 1520.75   55.69
   1   0   6 1571.74  123.49
  -1   0  -6 1559.14   57.09
   2   0   6  291.87   20.30
  -2   0  -6  297.77   20.60
  -2   0  -6  362.76   58.39
  -2   0  -6  303.67   15.40
   2   0   6  278.07   58.99
  -3   0  -6  -13.60   25.70
   3   0   6   37.60   29.60
  -3   0  -6   -0.50    3.70
   3   0   6   -3.70    3.50
  -4  -1   6    4.50    2.90
   4   1  -6   24.80   67.39
   4   1  -6   -2.70    6.40
  -3  -1   6    1.80    2.60
  -3  -1   6  -14.10   12.60
   3  -1  -6  -13.50   18.40
  -3   1   6    1.30    1.40
   3   1  -6   31.10   21.60
  -3   1   6   -0.20    1.20
  -2  -1   6   92.89   31.90
  -2  -1   6   89.79    9.30
   2  -1  -6   63.29   25.90
  -2  -1   6   95.29    8.30
  -2   1   6   85.79    7.60
   2   1  -6   77.99   32.30
  -2   1   6   75.99   26.80
   1  -1  -6   70.49    6.80
  -1  -1   6   96.99   32.30
  -1  -1   6   72.19    7.40
   1  -1  -6   55.79   20.60
  -1   1   6   71.19    6.90
   1   1  -6   63.39   22.40
  -1   1   6  109.29   23.80
   1   1  -6   71.09    7.20
   0  -1   6  849.61   84.79
   0  -1   6  808.72   34.00
   0  -1  -6  900.51   80.49
   0  -1  -6  831.72   33.70
   0   1   6  905.51   83.59
   0   1  -6  870.11   34.50
   0   1   6  858.01   34.00
   0   1  -6  885.21   83.79
   1  -1   6    3.10    2.70
   1  -1   6   -2.30    7.70
  -1  -1  -6   -0.70    1.40
  -1  -1  -6    0.10    2.50
   1   1   6    1.40    1.70
   1   1   6   -6.70    8.50
  -1   1  -6   -4.90   11.80
  -1   1  -6   -1.80    1.30
  -2  -1  -6   10.50    4.90
  -2  -1  -6   16.00    4.00
   2  -1   6   12.30    4.30
   2  -1   6   15.10   24.30
  -2   1  -6    8.00    4.50
   2   1   6   10.10   22.40
  -2   1  -6   41.70   28.20
   2   1   6   18.20    5.60
   3  -1   6   63.99   11.90
  -3  -1  -6   63.99   12.20
  -3  -1  -6   15.70   28.20
   3  -1   6   65.69   45.40
   3   1   6   60.39   12.00
  -3   1  -6   73.39   12.70
   3   1   6  113.29   40.60
  -3   1  -6   50.79   34.10
   3  -2  -6   46.50   15.10
   3  -2  -6   62.59   30.80
   3   2  -6   90.59   29.30
   2  -2  -6  221.98   32.30
  -2  -2   6  209.98   38.40
  -2  -2   6  200.78   13.30
  -2  -2   6  188.78   14.60
  -2   2   6  219.08   10.70
  -2   2   6  207.18   11.20
  -2   2   6  204.78   33.10
   2   2  -6  217.78   46.50
  -1  -2   6  455.95   60.89
   1  -2  -6  470.05   51.19
   1  -2  -6  457.35   19.70
  -1   2   6  412.26   19.10
   1   2  -6  454.95   21.30
  -1   2   6  464.85   54.19
   1   2  -6  415.86   59.69
   0  -2   6  326.87   18.20
   0  -2  -6  308.87   23.20
   0  -2  -6  340.07   48.40
   0  -2   6  363.66   51.99
   0   2   6  266.07   44.60
   0   2   6  292.97   16.70
   0   2  -6  250.07   46.40
   0   2  -6  298.27   17.30
   1  -2   6  643.44   79.39
  -1  -2  -6  665.63   75.29
  -1  -2  -6  687.43   30.90
  -1  -2  -6  698.63   31.70
   1  -2   6  694.63   31.50
  -1   2  -6  708.63   31.60
  -1   2  -6  660.83   77.09
   1   2   6  667.13   31.20
   1   2   6  686.73   76.99
   2  -2   6   78.19   31.70
  -2  -2  -6   39.50    8.70
   2  -2   6   51.89    9.70
  -2  -2  -6   47.40    6.90
  -2  -2  -6   60.49   31.20
   2   2   6   44.30    9.20
  -2   2  -6   39.90    5.10
   2   2   6   66.09   37.90
  -2   2  -6   46.60    9.30
  -2   2  -6   81.09   31.60
   3  -2   6   16.50    6.90
  -3  -2  -6   25.40    7.80
  -3  -2  -6  -17.50   23.00
   3  -2   6   17.70   30.90
  -3   2  -6   22.00    6.90
   3   2   6   89.99   33.10
   3   2   6   19.20    7.70
   3  -3  -6   13.60    6.00
  -3  -3   6    4.90    3.40
  -3  -3   6    0.70   16.40
  -3  -3   6    8.80    4.10
   3   3  -6   59.89   26.10
  -2  -3   6  372.26   52.89
  -2  -3   6  298.57   19.50
  -2  -3   6  299.97   17.40
   2  -3  -6  304.27   33.00
   2   3  -6  235.48   50.49
  -2   3   6  280.47   12.00
  -2   3   6  299.57   34.00
  -2   3   6  296.47   11.80
   1  -3  -6   71.49   21.80
  -1  -3   6  180.18   34.80
  -1  -3   6  115.79   10.00
   1  -3  -6  124.09    8.70
   1   3  -6  102.79   11.50
  -1   3   6  134.69   36.90
   1   3  -6  104.79   36.00
  -1   3   6  117.59    8.40
   0  -3  -6  153.98   11.40
   0  -3  -6  135.99   13.20
   0  -3  -6  152.38   31.70
   0  -3   6  155.68   12.10
   0  -3   6  159.28   34.90
   0   3  -6  146.49   11.60
   0   3  -6  109.79   33.00
   0   3   6  143.69   10.90
   0   3   6  143.39   31.00
  -1  -3  -6 1769.62   63.69
   1  -3   6 1834.82  141.59
   1  -3   6 1868.41   64.29
  -1  -3  -6 1768.12  126.49
  -1  -3  -6 1842.02   64.89
  -1   3  -6 1742.23  132.09
  -1   3  -6 1830.82   64.29
   1   3   6 1774.82  130.69
   1   3   6 1825.82   64.29
  -2  -3  -6   16.80   21.90
  -2  -3  -6   18.90    5.00
  -2  -3  -6   25.70    6.70
   2  -3   6   25.30    7.10
   2  -3   6   23.20   23.50
  -2   3  -6    3.90   17.80
   2   3   6   13.20   20.40
   2   3   6   24.80    6.90
  -2   3  -6   23.40    4.10
  -2   3  -6   27.90    7.10
   3  -3   6   40.80   33.20
   3  -3   6    6.60    4.70
  -3  -3  -6   11.40    6.20
  -3  -3  -6    4.90    3.60
   3   3   6    7.60    4.70
  -3   3  -6   14.70    5.20
   3   3   6  -13.20   31.10
  -3  -4   6  102.59   42.80
  -3  -4   6   61.79    9.50
  -3  -4   6   54.49    9.70
   3  -4  -6   65.89   12.80
   3   4  -6   58.39   11.80
   3   4  -6   41.80   35.30
  -2  -4   6   86.09    9.30
   2  -4  -6  101.09   15.30
  -2  -4   6   91.79   33.70
  -2  -4   6   99.59   11.40
   2   4  -6   55.79   33.80
  -2   4   6   88.29   18.20
   1  -4  -6  186.38   16.60
  -1  -4   6  178.28   13.30
   1  -4  -6  204.08   11.40
  -1  -4   6  219.58   45.30
   1   4  -6  211.48   58.79
  -1   4   6  197.08   11.00
   1   4  -6  177.68   12.90
  -1   4   6  160.98   31.10
   0  -4  -6    6.80    4.40
   0  -4   6   39.30   21.90
   0  -4   6   14.40    4.50
   0  -4  -6   15.60   14.70
   0  -4  -6   14.50    4.30
   0   4   6   22.50    5.10
   0   4  -6   16.30    4.80
   0   4   6   26.30   14.90
   0   4  -6    8.20   11.60
  -1  -4  -6   -1.70    1.80
  -1  -4  -6    4.50    3.10
   1  -4   6    0.90    3.10
   1  -4   6  -18.40   21.00
  -1  -4  -6   10.20   13.30
  -1   4  -6    0.60   16.50
   1   4   6    7.80    3.50
   1   4   6   24.00   19.00
  -1   4  -6    1.70    2.90
  -2  -4  -6  206.48   53.89
  -2  -4  -6  160.78   12.50
  -2  -4  -6  165.68   15.30
   2  -4   6  154.88   51.09
  -2   4  -6  144.69    9.60
  -2   4  -6  153.38    9.30
   2   4   6  151.18   14.90
   2   4   6  158.48   54.79
  -2   4  -6  139.79   13.40
  -2   4  -6  197.08   54.69
  -3  -4  -6  322.87   24.90
   3  -4   6  321.57   23.50
   3  -4   6  289.07   85.89
  -3  -4  -6  325.77   17.00
   3   4   6  330.67   25.80
  -3   4  -6  349.27   24.00
   3   4   6  320.97   81.69
   3   4   6  300.97   82.39
  -3   4  -6  315.07   68.49
  -3  -5   6   27.40   17.20
  -3  -5   6   22.10    5.80
  -3  -5   6   20.80    6.50
   3   5  -6    9.70    6.00
   3   5  -6   42.70   28.80
  -2  -5   6  357.96   23.80
   2  -5  -6  387.46   26.40
  -2  -5   6  375.06   21.30
  -2  -5   6  353.56   61.39
   2   5  -6  400.46   66.79
   1  -5  -6   20.10    4.00
  -1  -5   6   13.30    4.50
   1  -5  -6   11.90    4.70
  -1  -5   6   12.30   12.40
   1  -5  -6   10.20    9.50
  -1   5   6   21.90    4.00
   1   5  -6   18.10    4.70
   1   5  -6   56.49   26.80
  -1   5   6   15.20   13.80
   0  -5   6  859.81   96.59
   0  -5  -6  956.10   42.60
   0  -5  -6 1012.00   81.89
   0  -5   6 1031.80   40.10
   0  -5  -6  963.00   37.90
   0   5  -6 1062.29  103.99
   0   5   6  982.90   37.80
   0   5   6  916.11   82.59
   0   5  -6  953.20   38.80
  -1  -5  -6  214.88   16.20
   1  -5   6  239.68   48.50
  -1  -5  -6  222.38   41.70
  -1  -5  -6  212.98   16.20
   1  -5   6  214.78   15.90
   1   5   6  201.28   15.50
   1   5   6  209.48   39.10
  -1   5  -6  198.78   55.09
  -1   5  -6  201.98   15.30
  -2  -5  -6  789.12   34.50
  -2  -5  -6  902.51   96.39
   2  -5   6  822.02   37.90
   2  -5   6  787.32  101.79
  -2  -5  -6  834.42   39.90
   2   5   6  657.13   48.50
  -2   5  -6  761.22   93.69
   2   5   6  796.62   99.69
  -2   5  -6  767.52   36.90
  -2   5  -6  844.82   29.10
  -3  -5  -6   23.30    6.80
   3  -5   6   33.50   43.20
  -3  -5  -6   19.30    5.30
   3  -5   6   10.30    5.60
  -3   5  -6   22.40    6.80
   3   5   6   11.40   19.00
   3   5   6   68.19   42.20
   3   5   6    6.70    6.90
  -3   5  -6   51.19   29.80
  -3  -6   6   43.30   29.30
  -3  -6   6   55.79   11.10
   3  -6  -6   61.39   12.50
  -3  -6   6   53.59    9.80
   3   6  -6   42.20   10.30
   3   6  -6   94.09   51.69
  -2  -6   6  125.49   13.80
   2  -6  -6  102.39   13.00
  -2  -6   6  108.19   11.10
  -2  -6   6   85.49   38.60
   2   6  -6   59.79   32.50
   1  -6  -6 1104.59   49.40
  -1  -6   6 1345.47  120.69
   1  -6  -6  963.40   67.19
  -1  -6   6 1074.59   44.10
   1  -6  -6 1094.69   38.70
  -1   6   6 1144.49   38.80
   1   6  -6 1129.29  115.69
   1   6  -6 1167.78   44.60
  -1   6   6 1312.07   90.09
   0  -6   6   26.40    6.60
   0  -6  -6   30.20   15.80
   0  -6   6   12.50   17.40
   0  -6  -6   23.30    6.70
   0  -6  -6   19.90    5.30
   0   6   6   35.70    6.30
   0   6  -6   27.40   21.30
   0   6  -6   24.40    5.90
   0   6   6   38.20   22.20
  -1  -6  -6   34.10   15.20
   1  -6   6   40.70   22.70
  -1  -6  -6   16.60    5.40
   1  -6   6   14.70    5.00
  -1  -6  -6    6.50    3.30
   1   6   6   19.80    6.10
  -1   6  -6   19.70   19.90
   1   6   6    8.00   11.00
  -1   6  -6   10.60    4.40
  -2  -6  -6  195.58   17.80
   2  -6   6  300.17   54.39
   2  -6   6  178.28   15.90
  -2  -6  -6  190.68   15.10
   2   6   6  196.08   17.70
  -2   6  -6  174.28   21.60
   2   6   6  196.78   63.39
  -2   6  -6  202.48   49.99
  -2   6  -6  200.68   11.40
   3  -6   6  117.19   61.99
   3  -6   6   74.29   12.90
  -3  -6  -6   59.79   12.40
  -3  -6  -6   69.59    8.80
   3   6   6   74.59   14.40
  -3   6  -6   66.59   11.50
   3   6   6   94.39   39.50
  -3   6  -6   57.69   38.20
   3   6   6  116.09   55.29
  -3  -7   6  112.29   36.70
  -3  -7   6  110.09   13.80
  -3  -7   6   98.19   11.90
   3  -7  -6  127.19   14.90
   3   7  -6   64.49   13.40
   2  -7  -6   33.70    8.90
  -2  -7   6   55.29   33.20
  -2  -7   6   27.60    7.10
  -2  -7   6   33.00   14.00
   2   7  -6   81.39   35.50
   2   7  -6   30.20    8.60
   1  -7  -6    6.30    5.00
  -1  -7   6   37.90   27.30
  -1  -7   6   16.00    5.10
   1  -7  -6   11.60    3.30
   1   7  -6   17.10    5.30
  -1   7   6   14.60    3.50
  -1   7   6    7.80   11.70
   1   7  -6   12.60   18.70
   0  -7  -6  142.29   14.30
   0  -7  -6  145.89   14.80
   0  -7   6  138.09   12.80
   0  -7   6  170.08   52.39
   0   7  -6  150.78   12.70
   0   7   6  133.49   11.60
   0   7  -6  233.28   66.09
   0   7   6  160.08   44.60
   1  -7   6  131.99   12.80
  -1  -7  -6  143.29   44.60
   1  -7   6  190.78   58.59
  -1  -7  -6  135.39   13.20
  -1  -7  -6  135.99   13.30
   1   7   6  142.09   14.50
  -1   7  -6  127.69   12.20
   1   7   6  182.38   51.49
  -1   7  -6  113.49   40.00
  -1   7  -6  134.09   11.60
   1   7   6  131.29   13.10
   2  -7   6    2.90    3.30
   2  -7   6   22.20   26.50
  -2  -7  -6   -0.20    6.40
  -2  -7  -6    5.40    3.40
   2   7   6    4.00    2.90
  -2   7  -6    2.20    3.60
  -2   7  -6    6.00   20.50
   2   7   6   36.30   31.60
   2   7   6   13.80   14.30
   2   7   6    3.60    4.00
  -3  -7  -6    7.20    4.20
   3  -7   6   -0.60   43.00
  -3  -7  -6    7.40    4.60
   3  -7   6    0.50    4.50
   3   7   6    9.70    5.30
  -3   7  -6  -31.30   28.90
   3   7   6   19.70   41.10
  -3   7  -6    2.80    4.60
   3   7   6  -15.80   20.10
  -3  -8   6  217.18   72.19
  -3  -8   6  216.08   20.40
  -3  -8   6  215.48   18.30
   3  -8  -6  246.38   21.40
   3   8  -6  222.68   22.30
  -2  -8   6   10.40   20.70
   2  -8  -6   22.40    7.30
  -2  -8   6    6.10    4.50
  -2  -8   6   14.50    5.60
   2   8  -6   13.20   36.80
   2   8  -6   18.20    6.60
  -1  -8   6   13.10    4.90
   1  -8  -6    7.20    5.00
   1  -8  -6    8.20    2.80
   1   8  -6    7.70    4.30
  -1   8   6   16.60   10.60
   1   8  -6    2.50   17.20
  -1   8   6   12.50    3.30
  -1   8   6   14.00   10.00
   1   8  -6   11.60    5.60
   0  -8  -6  212.38   14.80
   0  -8   6  205.28   16.00
   0  -8   6  202.48   42.90
   0  -8  -6  192.48   17.20
   0   8  -6  208.48   16.60
   0   8  -6  209.38   15.50
   0   8   6  195.98   14.70
   0   8   6  281.17   83.19
   0   8  -6  206.28   63.59
  -1  -8  -6  129.79   13.00
   1  -8   6  211.98   65.59
   1  -8   6  128.79   12.70
  -1  -8  -6  123.49   13.30
  -1   8  -6  127.79   12.30
   1   8   6  105.59   12.10
  -1   8  -6  102.29   10.50
   1   8   6  178.48   37.50
   1   8   6  114.69   13.30
   2  -8   6   23.70   25.70
   2  -8   6   -4.60    2.40
  -2  -8  -6    2.00    3.60
  -2  -8  -6   -1.30    3.00
  -2   8  -6   -0.40    2.00
  -2   8  -6   -2.80   28.30
   2   8   6   -2.40    2.50
   2   8   6   -4.10    3.70
   2   8   6  -37.80   27.60
   2   8   6   13.20   17.90
  -2   8  -6   -1.90    3.00
  -3  -8  -6    5.30    5.00
  -3  -8  -6   11.50    4.90
   3  -8   6  -19.50   44.60
   3  -8   6   -1.30    4.50
  -3   8  -6   11.40    4.60
   3   8   6   -6.50   46.30
   3   8   6   -6.20    6.40
  -3   8  -6   36.80   34.60
   3   8   6   -3.60   25.10
  -3  -9   6   35.30    9.20
   3  -9  -6   47.60   10.20
  -3  -9   6   34.70   10.40
   3   9  -6   21.40    8.90
   2  -9  -6   19.00    6.90
  -2  -9   6   14.20    5.40
  -2  -9   6    4.30   21.30
  -2  -9   6    9.70    6.30
   2   9  -6   -7.60   30.90
   2   9  -6   21.00    7.20
  -1  -9   6    9.70    4.90
  -1  -9   6   -4.60   20.80
   1  -9  -6    9.60    3.10
   1  -9  -6   -4.20    3.00
   1   9  -6   13.30    5.60
   1   9  -6    9.10    4.50
  -1   9   6    3.50    2.60
   1   9  -6    2.90   27.70
  -1   9   6    7.30    8.10
  -1   9   6    4.90   10.40
   0  -9   6   -4.40   15.10
   0  -9   6   13.10    4.80
   0  -9  -6    9.80    4.60
   0  -9  -6   24.40    6.10
   0   9   6   11.80    5.90
   0   9  -6   12.00    5.00
   0   9   6   17.80    5.30
   0   9   6   30.40   15.50
   0   9  -6   32.90   31.00
   0   9  -6   13.00    5.40
   0   9   6   19.80   13.50
   1  -9   6   81.09   10.10
  -1  -9  -6   67.39   12.00
   1  -9   6  103.79   41.60
  -1  -9  -6   61.69   11.00
   1   9   6   35.00    9.00
  -1   9  -6   47.20    8.20
  -1   9  -6   44.80    8.60
  -1   9  -6   46.80   30.00
   1   9   6   65.69   31.10
   1   9   6   53.29   10.60
   1   9   6   38.30   29.90
  -2  -9  -6   49.20    9.60
   2  -9   6   43.50    9.10
   2  -9   6  159.68   55.19
  -2  -9  -6   42.70   10.50
   2   9   6    8.70   33.70
   2   9   6   30.10    8.30
  -2   9  -6   42.60    9.20
   2   9   6   33.80    9.00
  -2   9  -6   42.40    6.80
   2   9   6    9.80   30.40
   3  -9   6   62.89   12.30
  -3  -9  -6   67.89   11.20
  -3  -9  -6   56.19   13.10
   3   9   6   55.99   49.99
   3   9   6   53.49   11.20
  -3   9  -6   94.49   69.19
   3   9   6   68.49   14.30
  -3   9  -6   91.99   13.60
   3 -10  -6   15.90    6.60
  -3 -10   6    5.20    6.60
  -3 -10   6   10.20    6.30
   3  10  -6    4.90    6.50
   2 -10  -6   29.30    8.50
  -2 -10   6   42.60    8.90
  -2 -10   6   60.89   26.40
  -2 -10   6   32.90    9.70
   2  10  -6   -2.10   23.90
   2  10  -6   19.70    8.40
  -1 -10   6   73.69   11.70
   1 -10  -6   84.59   14.40
   1 -10  -6   75.89    7.60
  -1 -10   6   74.29   38.40
  -1  10   6   95.79   27.30
   1  10  -6  122.79   53.09
   1  10  -6   96.59   11.10
   1  10  -6   78.19   13.30
  -1  10   6   99.89   27.80
  -1  10   6   61.39    7.50
   0 -10  -6    6.30    4.00
   0 -10  -6    6.50    4.00
   0 -10   6   -0.60    2.90
   0 -10   6   25.00   16.80
   0  10   6   10.20    4.30
   0  10   6   23.10   17.60
   0  10  -6   58.19   34.20
   0  10   6    5.30   11.00
   0  10  -6    8.10    4.00
   0  10  -6   11.60    4.70
   0  10   6    4.40    4.00
  -1 -10  -6    7.90    4.60
   1 -10   6    9.90    4.80
   1 -10   6   20.70   33.60
  -1 -10  -6    7.40    3.90
   1  10   6  -27.80   19.50
   1  10   6    7.00    4.30
   1  10   6   23.60   19.90
  -1  10  -6    1.90    3.10
   1  10   6    5.40    4.70
  -1  10  -6    9.20    4.60
  -1  10  -6  -26.50   19.40
   2 -10   6   51.79   10.20
  -2 -10  -6   39.90    9.90
   2 -10   6   24.20   39.90
   2  10   6   33.90    9.10
  -2  10  -6   35.90    6.60
  -2  10  -6   38.40    8.70
   2  10   6   27.60    8.50
  -2  10  -6   53.89   48.60
   2  10   6   47.00   25.00
   2  10   6  133.59   44.50
  -3 -10  -6  117.59   20.80
  -3 -10  -6  139.19   15.20
   3 -10   6  144.79   15.60
   3 -10   6  112.19   91.59
   3  10   6  126.09   23.20
   3  10   6  104.09   58.79
   3  10   6  104.19   55.29
  -3  10  -6  152.18   59.49
   3  10   6  131.09   21.90
  -3  10  -6  146.29   15.40
  -3 -11   6   10.00    7.30
   3 -11  -6   20.60    5.90
  -3 -11   6    9.00    8.50
   3  11  -6    8.40    7.90
  -2 -11   6   31.80   10.00
   2 -11  -6   44.60   10.60
  -2 -11   6   34.60    9.00
  -2 -11   6   49.00   42.00
   2  11  -6   44.10   11.00
   2  11  -6  -14.50   28.50
  -1 -11   6   58.39   10.70
   1 -11  -6   42.90    6.70
  -1 -11   6   73.59   34.20
   1 -11  -6   46.70   11.10
   1  11  -6   58.59   10.80
   1  11  -6   30.10    8.90
  -1  11   6   40.10   21.60
  -1  11   6   54.29    8.30
   1  11  -6   51.99   50.89
   0 -11   6   38.40    8.60
   0 -11  -6   26.00    6.80
   0 -11   6   70.89   42.10
   0 -11  -6   24.80    8.00
   0  11  -6   39.70    8.60
   0  11   6   45.30   21.40
   0  11   6   41.60   10.60
   0  11  -6   29.30    7.80
   0  11   6   62.99   28.20
   0  11  -6   50.49   32.20
   0  11   6   42.40    9.00
   1 -11   6  146.49   14.60
  -1 -11  -6  159.48   16.00
   1 -11   6  214.88   74.09
  -1 -11  -6  160.68   16.40
  -1  11  -6  177.88   15.20
  -1  11  -6  143.79   13.70
   1  11   6  120.09   45.20
   1  11   6  126.39   16.00
   1  11   6  138.39   15.20
   1  11   6  180.08   56.29
  -1  11  -6  177.78   65.69
  -2 -11  -6    5.10    4.30
   2 -11   6    5.60    4.60
  -2 -11  -6    5.10    5.30
   2  11   6   25.50   28.70
   2  11   6  -41.30   33.00
  -2  11  -6    8.00    4.30
   2  11   6   -3.60    3.50
  -2  11  -6  -28.40   24.80
  -2  11  -6    5.30    4.70
   2  11   6    6.90    5.90
   3 -11   6    1.30    4.90
  -3 -11  -6    6.80    5.00
  -3 -11  -6    3.70    5.10
   3  11   6    5.50    5.50
   3  11   6  -33.20   46.20
   3  11   6   -9.50    7.30
  -3  11  -6   -5.00    4.20
   3  11   6   75.19   55.49
  -3 -12   6   31.40   11.80
   3 -12  -6   35.90    9.00
  -3 -12   6   31.40    9.40
   3  12  -6   35.70   11.40
  -2 -12   6    7.20    5.90
  -2 -12   6   19.60   37.20
  -2 -12   6    5.00    4.60
   2 -12  -6    9.30    6.40
   2  12  -6  -25.40   27.60
   2  12  -6   17.30    7.80
   1 -12  -6    4.60    3.40
  -1 -12   6    8.20    6.30
   1 -12  -6    8.60    3.50
  -1  12   6   -6.70   11.50
   1  12  -6   29.00   31.00
  -1  12   6    3.50    3.20
   1  12  -6    2.90    4.70
  -1  12   6   -9.90   13.00
   0 -12   6   66.49   35.20
   0 -12   6   50.49   10.20
   0 -12  -6   66.09   12.40
   0 -12  -6   52.89    9.90
   0  12  -6   54.19   37.30
   0  12   6   69.29   26.90
   0  12  -6   45.90    9.90
   0  12   6   56.49   13.20
   0  12   6   50.29   10.10
   0  12   6   65.39   28.40
   1 -12   6  191.38   17.20
  -1 -12  -6  215.68   18.70
   1 -12   6  177.48   58.99
  -1 -12  -6  183.68   18.20
   1  12   6  184.58   61.89
  -1  12  -6  177.98   16.00
   1  12   6  168.48   58.69
   1  12   6  185.28   18.50
  -1  12  -6  149.19   53.99
  -1  12  -6  176.88   15.80
   1  12   6  155.88   17.80
  -2 -12  -6   27.70    8.60
  -2 -12  -6   16.40    7.80
   2 -12   6   21.80    8.10
   2 -12   6  -35.90   41.40
  -2  12  -6   19.80   37.60
   2  12   6   17.40    8.00
   2  12   6   47.60   36.40
   2  12   6   31.20   29.20
  -2  12  -6   31.60    8.20
   2  12   6   35.20   11.80
  -2  12  -6   24.00    6.50
   3 -12   6  119.49   78.49
   3 -12   6   51.29   11.00
  -3 -12  -6   54.19   11.80
  -3 -12  -6   60.69   13.50
   3  12   6   45.70   11.80
  -3  12  -6  -31.00   54.99
  -3  12  -6   58.29   12.50
   3  12   6   59.59   63.99
   3  12   6  -15.40   40.90
   3  12   6   61.29   17.70
  -3 -13   6   18.00    7.80
   3 -13  -6   39.00   10.10
  -3 -13   6   14.70    9.40
   3  13  -6    7.20    7.30
  -2 -13   6  219.38   23.40
  -2 -13   6  230.48   20.40
  -2 -13   6  359.06   76.09
   2 -13  -6  261.37   23.40
   2  13  -6  234.88   23.90
   2  13  -6  137.59   63.29
   1 -13  -6   70.19   13.30
   1 -13  -6   64.99    8.00
  -1 -13   6   84.29   49.30
  -1 -13   6   72.89   14.70
  -1 -13   6   81.39   13.30
  -1  13   6   89.99   32.70
   1  13  -6   88.19   15.40
  -1  13   6   62.49   25.90
   1  13  -6  132.99   58.99
   0 -13  -6  331.07   21.60
   0 -13   6  267.97   21.20
   0 -13   6  262.67   80.89
   0 -13  -6  316.27   24.70
   0  13  -6  459.65  109.39
   0  13   6  292.67   25.30
   0  13   6  211.98   53.39
   0  13   6  281.07   21.40
   0  13  -6  270.07   20.40
   0  13   6  254.27   63.29
   0  13  -6  301.17   23.30
  -1 -13  -6  168.58   17.70
   1 -13   6  172.58   16.70
  -1 -13  -6  159.58   16.50
   1 -13   6  189.28   64.89
   1  13   6  186.68   18.60
  -1  13  -6  120.49   14.10
   1  13   6  138.99   53.49
  -1  13  -6  186.58   65.99
   1  13   6  220.88   59.79
  -1  13  -6  169.68   16.10
   1  13   6  145.29   17.60
  -2 -13  -6   39.90   10.70
   2 -13   6   61.39   74.89
  -2 -13  -6   62.59   13.30
   2 -13   6   44.00   10.50
   2  13   6   37.30    9.90
   2  13   6   68.59   39.90
   2  13   6   63.59   71.69
   2  13   6   56.99   13.20
  -2  13  -6   44.40    8.60
  -2  13  -6   36.30    9.10
  -2  13  -6   47.60   43.70
  -3 -13  -6   -5.80    6.40
  -3  13  -6   14.10    6.00
   3  13   6   77.99   74.39
   3  13   6  -47.00   38.20
   3  13   6    4.20    8.60
  -2 -14   6   44.20   39.40
  -2 -14   6   25.00    9.60
  -2 -14   6   13.40    7.40
   2 -14  -6   23.40    7.80
   2  14  -6    9.00    7.00
   2  14  -6  -41.50   29.50
  -1 -14   6  491.75   35.40
   1 -14  -6  517.55   33.40
   1 -14  -6  505.15   25.00
  -1 -14   6  462.65   29.80
  -1  14   6  423.46   56.59
  -1  14   6  446.16   61.99
   1  14  -6  508.55   33.50
   1  14  -6  428.46  114.29
   0 -14  -6  229.08   21.20
   0 -14   6  202.18   19.00
   0 -14  -6  202.48   17.30
   0 -14   6  306.27   84.79
   0  14  -6  206.48   18.10
   0  14   6  142.79   45.00
   0  14  -6  213.98   73.89
   0  14   6  190.08   18.00
   0  14   6  188.58   59.19
   0  14   6  195.98   21.50
   0  14  -6  213.98   19.50
   1 -14   6   87.29   13.90
  -1 -14  -6   75.39   13.90
  -1 -14  -6   76.09   13.60
  -1  14  -6   54.99   42.10
   1  14   6   64.19   39.10
   1  14   6   57.79   12.40
  -1  14  -6   59.69   11.70
  -1  14  -6   64.59   12.20
   1  14   6   66.99   14.40
   1  14   6   50.09   40.80
  -2 -14  -6   15.10    6.60
  -2 -14  -6   23.90    9.00
   2 -14   6   16.10    7.10
   2 -14   6  -77.69   48.60
  -2  14  -6   25.80    7.30
  -2  14  -6  -10.80   33.10
   2  14   6   21.20   10.20
   2  14   6  -43.50   25.70
  -2  14  -6    9.60    5.90
   2  14   6   12.10    8.00
   2  14   6   28.80   36.50
   2 -15  -6   16.90    8.40
  -2 -15   6   27.90    9.30
  -2 -15   6   15.60    7.00
  -2 -15   6   73.99   45.00
   2  15  -6   17.20    9.50
   2  15  -6   91.79   73.09
   1 -15  -6  174.28   20.00
   1 -15  -6  197.38   14.90
  -1 -15   6  204.78   18.90
  -1 -15   6  179.98   21.20
   1  15  -6  181.08   83.09
  -1  15   6  197.88   21.20
  -1  15   6  139.39   46.00
  -1  15   6  189.18   36.90
   1  15  -6  213.58   21.20
   0 -15  -6   -2.20    4.50
   0 -15   6   18.60   29.90
   0 -15   6    3.80    4.30
   0 -15  -6   -3.70    3.80
   0  15   6   10.70   21.50
   0  15   6   -1.90    3.70
   0  15  -6    2.10    5.30
   0  15  -6  -30.90   29.50
   0  15  -6   -8.60    3.00
   0  15   6   30.40   18.80
   0  15   6   -4.60    4.10
  -1 -15  -6    9.70    6.00
   1 -15   6    2.30    4.40
  -1 -15  -6   18.80    7.40
  -1  15  -6    9.30    5.80
  -1  15  -6   11.60   34.30
  -1  15  -6   10.80    5.10
   1  15   6   13.10    6.50
   1  15   6   -6.70   30.10
   1  15   6   -3.10    7.50
   1  15   6   13.60   26.20
  -2 -15  -6    1.30    7.10
  -2 -15  -6    6.50    6.50
   2 -15   6    0.10    4.80
   2  15   6    3.10    6.20
  -2  15  -6   43.80   43.90
  -2  15  -6   -1.60    4.00
   2  15   6   -0.70    6.30
   2  15   6   68.09   47.70
  -2  15  -6    4.10    4.20
   2 -16  -6    8.10    6.80
  -2 -16   6    7.10    7.80
  -2 -16   6  149.29   83.09
  -2 -16   6    1.70    4.40
   2 -16  -6    2.80    1.60
   2  16  -6  -65.79   66.09
   2  16  -6    9.20    7.80
  -1 -16   6   -4.20    3.70
   1 -16  -6   11.30    4.40
   1 -16  -6   11.30    7.20
   1 -16  -6    7.20    4.50
  -1 -16   6    7.20    6.10
  -1  16   6    3.50    6.20
   1  16  -6    2.20    7.60
  -1  16   6   -1.40   28.70
   1  16  -6  -25.50   44.50
   0 -16   6   -1.80    4.80
   0 -16   6   91.79   39.20
   0 -16  -6    5.40    4.10
   0 -16  -6    5.40    6.60
   0  16  -6    2.30    3.90
   0  16  -6    2.90   43.60
   0  16   6    2.50    4.90
   0  16   6   -1.50    4.60
   0  16   6   37.70   23.50
   0  16  -6    5.40    3.80
  -1 -16  -6  161.18   17.70
   1 -16   6  180.28   18.40
  -1 -16  -6  198.38   20.50
   1  16   6  242.18   70.29
  -1  16  -6  187.58   81.39
   1  16   6  127.39   63.69
   1  16   6  169.68   20.40
  -1  16  -6  159.38   17.60
  -1  16  -6  192.58   18.00
   1  16   6  132.59   20.60
   2 -16   6   34.90   42.60
  -2 -16  -6   32.70   16.50
   2 -16   6   25.00    8.80
  -2 -16  -6   17.40    8.70
  -2  16  -6   57.79   59.89
   2  16   6   16.70   12.60
  -2  16  -6   33.40    8.80
   2  16   6   38.50   51.99
   2  16   6   43.60   11.20
   1 -17  -6    2.60    3.90
   1  17  -6   76.59   44.20
  -1  17   6  -24.80   28.50
   1  17  -6    6.20    5.60
  -1  17   6   -1.20    7.60
   0 -17  -6  185.28   21.30
   0 -17   6  199.58   69.29
   0 -17  -6  185.58   18.20
   0 -17   6  205.28   20.50
   0  17   6  190.18   20.50
   0  17   6  199.78   23.20
   0  17  -6  186.08   78.39
   0  17   6  329.37   61.59
   0  17  -6  208.48   21.70
  -1 -17  -6  241.98   41.80
   1 -17   6  124.29   59.39
   1 -17   6  168.98   29.70
   1  17   6  248.38   67.89
   1  17   6  156.58   23.30
   1  17   6  131.29   21.50
  -1  17  -6  209.88   19.30
  -1  17  -6  161.98   76.19
  -1  17  -6  193.68   20.00
   1  17   6   44.80   64.79
  -2 -17  -6   11.60    8.70
  -2 -17  -6   14.40    7.10
   2 -17   6    7.80    7.50
   2  17   6   -7.10    8.10
  -2  17  -6   13.00    7.40
   2  17   6  -43.50   84.09
   2  17   6   77.59   61.29
   2  17   6    7.10   12.20
  -2  17  -6   17.70    7.40
   1 -18  -6   27.10   10.70
  -1 -18   6  137.29   55.29
  -1 -18   6   18.80    9.20
   1 -18  -6   62.09   10.60
  -1 -18   6   11.80    9.00
   1 -18  -6   46.80    9.40
   1  18  -6   41.90   11.70
   1  18  -6    9.10   61.59
  -1  18   6   64.19   59.89
   0 -18   6   19.30    8.40
   0 -18   6   15.60   10.80
   0 -18  -6   43.80   11.10
   0 -18  -6   21.20    7.20
   0 -18   6  130.39   53.89
   0  18   6   -0.20   36.40
   0  18  -6   17.90    8.40
   0  18  -6  -25.20   55.39
   1 -18   6    5.70    6.60
  -1 -18  -6    6.30    7.00
   1 -18   6   -8.10   30.50
  -1 -18  -6   -6.80    5.70
   1  18   6    9.00    6.70
   1  18   6    4.70    6.30
  -1  18  -6   -8.30    5.30
  -1  18  -6  -33.40   67.49
   1  18   6   25.60   50.69
   1 -19  -6   52.49    9.70
  -1 -19   6   14.20   70.89
   1 -19  -6   30.60   12.10
   1 -19  -6   37.80   10.60
  -1 -19   6   55.29   14.40
  -1 -19   6   25.90    9.80
   1  19  -6   50.69   13.50
  -1  19   6   51.99   47.70
  -1  19   6   22.40   12.20
   1  19  -6  -58.29   64.59
   0 -19   6  -29.20   58.09
   0 -19  -6   13.40    7.20
   0 -19  -6   13.80    7.70
   0 -19   6   12.80    7.00
   0 -19   6  -10.90    4.60
   0  19   6    0.30    6.70
   0  19  -6   15.00    8.20
   0  19   6   13.60   49.90
   0  19  -6  -35.90   67.59
  -1 -19  -6    4.00    7.00
   1  19   6    7.20    6.10
   1  19   6   21.50   11.60
  -1  19  -6   15.50    6.80
   0  20  -6    6.70    5.30
  -3   0   7    1.60    2.20
  -3   0   7    0.30    1.90
   3   0  -7    4.10   21.30
   2   0  -7   -2.80    1.80
  -2   0   7    0.60    2.10
   2   0  -7   12.90   13.40
  -2   0   7    3.60   13.30
  -1   0   7   14.20   10.20
  -1   0   7    0.80    1.80
   1   0  -7    5.30   13.20
   0   0   7   16.00    8.20
   0   0  -7   22.90   14.20
  -1   0  -7  -11.90   16.70
  -1   0  -7   -1.20    1.50
   1   0   7    1.50    3.10
   1   0   7  -21.60   13.40
  -2   0  -7    0.50    2.00
  -2   0  -7   -0.20    2.30
  -2   0  -7    2.90   15.80
   2   0   7    3.50    4.30
   2   0   7   -4.90   14.50
   3   0   7   80.89   34.70
   3   0   7   -4.80    3.90
  -3   0  -7  -42.80   28.10
  -3   0  -7    1.70    5.00
  -3  -1   7    6.30   13.10
  -3  -1   7    8.30    3.40
  -3   1   7   18.40   13.40
   3   1  -7   10.20   23.90
  -3   1   7    4.70    1.90
  -3   1   7    3.40    2.00
  -2  -1   7   33.90   15.90
   2  -1  -7   12.40    3.40
  -2  -1   7   17.40    4.50
   2  -1  -7   27.30   17.00
   2   1  -7   16.60    4.10
   2   1  -7   15.70   15.60
  -2   1   7   34.60   15.10
  -2   1   7    6.90    3.60
  -1  -1   7  499.25   64.89
   1  -1  -7  572.14   24.30
   1  -1  -7  540.55   62.79
  -1  -1   7  495.15   24.30
   1   1  -7  530.75   67.19
   1   1  -7  548.35   24.80
  -1   1   7  479.05   76.59
  -1   1   7  505.45   23.70
   0  -1  -7  550.14   68.49
   0  -1  -7  513.85   25.80
   0  -1   7  585.24   75.09
   0  -1   7  517.45   26.00
   0   1   7  536.05   67.69
   0   1  -7  609.54   70.59
   0   1   7  567.14   26.40
   0   1  -7  548.35   26.40
  -1  -1  -7  342.17   59.89
   1  -1   7  342.37   21.40
  -1  -1  -7  354.46   21.60
  -1  -1  -7  369.16   22.10
   1  -1   7  345.87   59.19
   1   1   7  356.06   21.70
  -1   1  -7  346.47   21.60
   1   1   7  400.26   63.99
  -1   1  -7  412.96   64.89
   2  -1   7   51.79   36.40
  -2  -1  -7   21.90   18.80
   2  -1   7   22.70    6.70
  -2  -1  -7   21.40    7.40
  -2  -1  -7   29.50    6.20
  -2   1  -7   28.20    9.30
  -2   1  -7   19.20    4.70
  -2   1  -7   32.70   32.70
   2   1   7   27.80    7.40
   2   1   7   61.09   25.80
  -3  -1  -7   27.00    8.80
   3  -1   7   22.60    9.00
  -3  -1  -7  -12.00   28.10
   3   1   7   29.50    9.10
  -3   1  -7   35.80   10.00
  -3   1  -7   33.30   37.40
   3   1   7   49.30   42.40
   3   2  -7  -40.60   29.20
   2  -2  -7    5.90    2.50
  -2  -2   7    9.80    3.90
  -2  -2   7   -3.50   12.90
  -2   2   7   13.30    3.30
   2   2  -7    9.60   19.30
  -2   2   7   17.90   11.30
   2   2  -7    6.20    3.40
  -1  -2   7  108.89   40.30
   1  -2  -7   95.99    8.50
  -1  -2   7   78.59    8.70
   1  -2  -7   54.89   21.40
   1   2  -7   82.79    8.50
  -1   2   7  122.19   25.30
  -1   2   7   65.69    7.30
   1   2  -7   53.19   18.70
   0  -2  -7  151.48   12.00
   0  -2   7  162.98   47.70
   0  -2   7  135.69   11.80
   0  -2  -7  108.09   33.20
   0   2   7  163.28   45.70
   0   2   7  130.09   11.20
   0   2  -7  127.39   40.20
   0   2  -7  126.89   11.40
   1  -2   7   43.40    8.60
  -1  -2  -7   47.50    8.90
   1  -2   7   51.39   26.70
  -1  -2  -7   43.20   22.00
  -1  -2  -7   43.50    8.80
  -1   2  -7   62.29   34.40
  -1   2  -7   36.20    7.90
   1   2   7   42.10    8.10
   1   2   7   42.60   24.90
  -2  -2  -7   75.79   36.10
   2  -2   7   28.40   34.80
  -2  -2  -7   34.80    6.90
   2  -2   7   45.50    9.60
  -2  -2  -7   33.30    9.70
  -2   2  -7   51.59   31.70
  -2   2  -7   32.40   12.10
   2   2   7   46.60    9.80
   2   2   7   71.69   32.30
  -2   2  -7   36.00    6.10
  -3  -2  -7  436.16   86.29
   3  -2   7  511.05   31.50
  -3  -2  -7  394.96   18.70
  -3  -2  -7  497.85   31.80
   3  -2   7  478.95   94.29
   3   2   7  527.15   33.30
   3   2   7  487.75   87.09
  -3   2  -7  520.35   31.30
  -3   2  -7  431.06   82.69
  -3  -3   7    6.30    3.90
  -3  -3   7    5.60    3.50
  -3  -3   7   -4.30   14.10
   2  -3  -7  182.88   30.00
  -2  -3   7  148.89   47.60
  -2  -3   7   94.49   17.60
   2  -3  -7  131.49    8.40
   2   3  -7  137.49   44.60
  -2   3   7  176.78   28.70
  -2   3   7  129.89    8.10
   2   3  -7  126.09   11.10
  -1  -3   7 1770.62   62.89
  -1  -3   7 1850.51  144.19
   1  -3  -7 1889.51   60.09
   1  -3  -7 1842.32  116.59
   1   3  -7 1837.02   62.59
  -1   3   7 1808.02   59.39
  -1   3   7 1814.42  121.69
   1   3  -7 1627.34  134.89
   0  -3  -7   76.49   11.90
   0  -3  -7   70.79   26.70
   0  -3   7  108.89   42.20
   0  -3  -7   66.99    8.10
   0  -3   7   70.69    8.60
   0   3   7   71.29    8.20
   0   3   7   95.39   34.80
   0   3  -7   52.59   25.70
   0   3  -7   69.69    8.40
  -1  -3  -7  498.95   26.60
  -1  -3  -7  448.56   25.80
   1  -3   7  478.65   76.19
   1  -3   7  486.75   26.20
  -1  -3  -7  501.15   68.29
  -1   3  -7  473.65   72.29
  -1   3  -7  465.25   25.70
   1   3   7  456.55   25.50
   1   3   7  362.16   59.59
   2  -3   7  191.68   16.70
  -2  -3  -7  220.28   24.50
  -2  -3  -7  188.58   54.99
  -2  -3  -7  190.28   14.10
   2  -3   7  251.67   48.40
   2   3   7  251.87   69.79
  -2   3  -7  163.68   11.90
  -2   3  -7  126.89   48.20
  -2   3  -7  179.68   15.90
   2   3   7  198.98   17.40
   3  -3   7   29.80    9.30
  -3  -3  -7   33.90    8.80
  -3  -3  -7   26.60    5.20
   3   3   7   32.10   10.00
   3   3   7   94.79   36.10
  -3   3  -7   77.99   38.60
  -3   3  -7   15.00    6.10
  -3  -4   7  163.48   14.90
   3  -4  -7  228.08   21.80
  -3  -4   7  185.78   54.49
  -3  -4   7  205.38   16.70
  -2  -4   7  129.79   13.60
  -2  -4   7  132.69   12.00
   2  -4  -7  126.89   23.20
   2  -4  -7  143.49   16.60
   2  -4  -7  126.99    7.60
  -2  -4   7   68.49   35.10
   2   4  -7  163.88   47.40
  -2   4   7  140.19   26.60
  -2   4   7  126.99    6.90
  -1  -4   7   59.39    9.00
  -1  -4   7   34.50   19.10
   1  -4  -7   32.10   19.00
   1  -4  -7   53.99   10.70
   1  -4  -7   53.49    6.20
  -1   4   7   52.19   22.20
   1   4  -7   54.79    8.50
  -1   4   7   63.79    6.60
   1   4  -7   41.30   23.50
   0  -4  -7  323.17   18.80
   0  -4  -7  277.27   45.60
   0  -4   7  317.37   19.80
   0  -4   7  325.37   55.19
   0  -4  -7  312.57   22.00
   0   4   7  291.47   17.90
   0   4  -7  303.37   19.00
   0   4   7  265.17   47.40
   0   4  -7  368.66   58.99
   1  -4   7  518.85   79.69
  -1  -4  -7  505.95   28.60
  -1  -4  -7  595.94   72.39
  -1  -4  -7  612.94   30.40
   1  -4   7  603.24   29.90
   1   4   7  537.35   73.89
  -1   4  -7  552.24   28.80
   1   4   7  565.54   29.20
  -1   4  -7  528.45   74.59
  -2  -4  -7   53.39   27.50
   2  -4   7   75.69   12.30
  -2  -4  -7   73.59   10.70
  -2  -4  -7   55.79   13.30
   2  -4   7  109.09   43.00
   2   4   7   64.89   29.70
  -2   4  -7   92.29   45.70
  -2   4  -7   60.79    7.10
   2   4   7   74.69   12.90
  -2   4  -7   63.79   11.10
  -3  -4  -7    8.20    3.30
  -3  -4  -7   14.30    7.00
   3  -4   7    7.80    5.90
   3  -4   7  -21.20   45.90
  -3   4  -7   -0.70   32.30
   3   4   7    4.70    4.60
  -3   4  -7    6.70    4.40
   3   4   7   34.90   42.50
   3  -5  -7   26.40   10.00
  -3  -5   7   32.20    7.90
  -3  -5   7   28.00    7.10
   3   5  -7   18.00    8.20
   2  -5  -7  259.67   10.90
  -2  -5   7  251.67   20.80
  -2  -5   7  256.17   53.89
   2  -5  -7  212.68   23.80
   2  -5  -7  265.57   23.20
  -2  -5   7  268.97   18.10
  -2   5   7  281.77   32.20
   1  -5  -7  311.67   42.80
  -1  -5   7  365.96   21.30
   1  -5  -7  345.77   17.40
  -1  -5   7  293.67   55.89
   1  -5  -7  309.57   23.70
  -1   5   7  341.47   17.00
   1   5  -7  346.67   20.20
  -1   5   7  330.07   47.30
   1   5  -7  357.86   66.39
   0  -5   7   12.80    5.10
   0  -5  -7   18.10    4.60
   0  -5  -7   21.30    6.90
   0  -5   7   36.70   26.60
   0  -5  -7   11.80   12.30
   0   5   7   14.90   19.60
   0   5  -7   11.00    4.40
   0   5  -7   33.20   18.30
   0   5   7   14.20    4.70
   1  -5   7  172.68   14.70
  -1  -5  -7  161.08   14.70
  -1  -5  -7  174.28   15.20
  -1  -5  -7  135.79   40.60
   1  -5   7  156.28   50.09
   1   5   7  234.68   63.19
   1   5   7  176.28   15.00
  -1   5  -7  158.18   14.10
  -1   5  -7  179.48   57.49
   2  -5   7  432.16   82.49
  -2  -5  -7  584.94   28.60
  -2  -5  -7  568.14   80.89
  -2  -5  -7  512.55   31.20
   2  -5   7  545.85   30.70
  -2   5  -7  516.95   81.59
  -2   5  -7  568.04   31.00
   2   5   7  543.75   32.10
  -2   5  -7  549.15   23.50
   2   5   7  536.45   82.19
  -3  -5  -7    0.90    3.30
   3  -5   7    3.30    4.50
  -3  -5  -7   -1.70    4.10
   3  -5   7  -16.40   44.80
  -3   5  -7   -9.10    3.90
   3   5   7    9.20    6.60
   3   5   7    1.30   23.30
   3   5   7   80.19   35.50
  -3  -6   7   10.60    5.30
   3  -6  -7   13.10    6.70
  -3  -6   7   12.10    5.60
   3   6  -7    3.40    5.40
   2  -6  -7   58.99   15.50
  -2  -6   7   88.19   14.40
  -2  -6   7   65.49   10.50
  -2  -6   7   61.19   39.70
  -2   6   7   69.69   17.50
   2   6  -7   89.79   27.90
  -1  -6   7  464.05   74.69
  -1  -6   7  387.06   23.00
   1  -6  -7  393.86   19.20
   1  -6  -7  370.36   45.00
   1  -6  -7  403.26   27.50
  -1   6   7  411.96   19.30
   1   6  -7  442.06   72.69
  -1   6   7  377.56   50.19
   1   6  -7  422.06   23.40
   0  -6   7   63.79   10.30
   0  -6   7   76.49   37.50
   0  -6  -7   54.19   10.60
   0  -6  -7   46.20   20.80
   0  -6  -7   62.29    9.30
   0   6  -7   37.00   27.20
   0   6   7   69.09    8.40
   0   6  -7   70.09    8.70
  -1  -6  -7  212.98   54.59
  -1  -6  -7  173.98   15.80
   1  -6   7  270.77   47.50
   1  -6   7  173.08   15.30
  -1  -6  -7  165.98   15.20
  -1   6  -7  233.88   66.69
   1   6   7  207.48   44.00
  -1   6  -7  171.68   15.10
   1   6   7  185.18   15.90
  -2  -6  -7  209.78   61.79
  -2  -6  -7  191.38   18.10
   2  -6   7  185.88   16.90
  -2  -6  -7  219.88   16.80
  -2   6  -7  215.68   64.29
   2   6   7  133.59   52.19
  -2   6  -7  178.78   12.10
  -2   6  -7  185.88   16.70
   2   6   7  176.48   17.50
   3  -6   7  -58.79   42.40
   3  -6   7    1.90    4.30
  -3  -6  -7    5.00    6.30
  -3  -6  -7    0.60    3.30
   3   6   7   -7.40   20.40
   3   6   7    5.50    6.50
  -3   6  -7   26.30   36.90
  -3   6  -7    5.40    5.70
  -3  -7   7  206.38   17.20
   3  -7  -7  193.38   20.90
  -3  -7   7  196.88   18.60
   3   7  -7  162.68   19.30
  -2  -7   7   21.90    7.80
  -2  -7   7   44.10    9.10
   2  -7  -7   11.00    5.70
  -2  -7   7   30.30   28.20
   2   7  -7   20.10    7.20
   2   7  -7   -6.00   21.80
   1  -7  -7  -17.10   10.60
  -1  -7   7    6.00   18.20
  -1  -7   7   -0.40    2.50
   1  -7  -7    3.80    4.60
   1  -7  -7   -1.30    1.30
  -1   7   7   -9.60    9.80
  -1   7   7    0.50    1.70
   1   7  -7    2.10    2.10
   0  -7  -7    4.60    4.40
   0  -7  -7   17.60   12.40
   0   7   7    0.80   10.20
   0   7  -7    5.00   21.20
   0   7   7    6.30    3.50
  -1  -7  -7  479.45   28.80
  -1  -7  -7  515.95   29.00
   1  -7   7  495.25   84.79
   1  -7   7  501.15   28.40
  -1  -7  -7  468.05   69.89
   1   7   7  553.04   29.80
  -1   7  -7  547.55   29.00
  -1   7  -7  569.24   84.79
   1   7   7  479.85   73.69
  -1   7  -7  502.55   26.50
   2  -7   7  475.95   28.90
  -2  -7  -7  531.85   28.80
  -2  -7  -7  542.05   32.50
   2  -7   7  587.14   85.09
  -2   7  -7  507.25   23.00
  -2   7  -7  451.05   78.79
  -2   7  -7  486.15   28.90
   2   7   7  510.95   32.10
   2   7   7  367.66   76.49
   3  -7   7   85.89   66.19
  -3   7  -7  -34.50   39.80
   3   7   7  -16.30   31.50
   3  -8  -7   64.19   13.40
  -3  -8   7   49.30   11.20
  -3  -8   7   42.30    9.20
   3   8  -7   39.90   11.60
  -2  -8   7    3.80    3.40
   2  -8  -7    9.80    5.00
  -2  -8   7    9.30    5.80
  -2  -8   7   70.49   27.60
   2   8  -7    0.50   24.40
  -1  -8   7   73.09   11.40
   1  -8  -7   83.39    7.90
   1  -8  -7   82.99   14.70
  -1  -8   7  102.79   51.79
  -1   8   7   80.19    8.00
   1   8  -7   21.10   27.70
  -1   8   7   89.39   30.70
   1   8  -7  104.79   13.30
   1   8  -7   85.79   10.30
   0  -8  -7    4.80    3.10
   0  -8   7    2.80    3.30
   0  -8   7   12.40   18.70
   0  -8  -7    4.30    4.60
   0   8   7    0.60    1.80
   0   8  -7    2.50    3.20
   0   8   7   -5.10   10.50
   0   8  -7   14.50   18.80
   0   8  -7   -0.20    1.90
   1  -8   7  224.58   71.59
  -1  -8  -7  167.28   16.40
  -1  -8  -7  191.48   16.60
  -1   8  -7  175.38   15.70
  -1   8  -7  232.88   63.89
  -1   8  -7  149.88   14.10
   1   8   7  204.78   67.49
   1   8   7  201.18   17.40
  -2  -8  -7    3.20    4.90
  -2  -8  -7    9.00    4.70
   2  -8   7   -2.10    3.40
   2   8   7  -10.20   24.50
  -2   8  -7    2.00   24.90
   2   8   7   73.59   33.90
  -2   8  -7    5.80    4.40
   2   8   7   10.80    6.00
  -3  -8  -7    7.60    7.10
  -3  -8  -7    5.90    4.60
   3   8   7    1.10   25.50
   3   8   7  137.89   61.29
  -3   8  -7  -52.49   35.60
  -3   8  -7    8.80    6.60
  -3  -9   7   14.40    7.40
  -3  -9   7   22.00    6.70
   3  -9  -7   17.90    7.70
   3   9  -7   -0.10    6.20
  -2  -9   7   53.79   49.10
  -2  -9   7  110.09   13.00
  -2  -9   7  106.19   17.10
   2  -9  -7  144.39   16.60
   2   9  -7   86.09   41.00
   2   9  -7  103.89   17.20
  -1  -9   7   22.00    6.50
  -1  -9   7   41.40   40.20
   1  -9  -7   23.00    5.10
   1  -9  -7   37.00    9.60
   1   9  -7  -30.50   23.50
  -1   9   7   18.90    4.80
  -1   9   7    7.60   14.70
   1   9  -7   16.00    6.00
  -1   9   7   35.40   19.20
   0  -9  -7   80.59   13.90
   0  -9  -7   92.59   10.50
   0  -9   7  171.08   57.89
   0  -9   7   90.79   13.20
   0   9  -7   95.49   11.30
   0   9   7  147.89   44.00
   0   9  -7   98.69   53.89
   0   9  -7   77.89   12.80
   0   9   7   86.79   10.40
   1  -9   7  466.55   28.00
  -1  -9  -7  489.85   28.80
  -1  -9  -7  440.26   28.40
   1  -9   7  452.45   79.59
  -1   9  -7  508.35   41.70
   1   9   7  455.05   30.00
  -1   9  -7  470.35   26.30
   1   9   7  499.45   29.40
  -1   9  -7  446.16   84.09
   1   9   7  431.26   72.89
   2  -9   7   80.29   13.30
  -2  -9  -7   72.29   13.90
   2   9   7   63.59   12.20
  -2   9  -7   42.90   40.80
   2   9   7   77.99   14.40
   2   9   7   99.69   47.80
  -2   9  -7   85.79    9.20
   2   9   7   18.00   41.00
  -2   9  -7   93.49   11.60
   3  -9   7  209.58   79.89
   3  -9   7   77.49   14.10
  -3  -9  -7   59.89   16.20
  -3  -9  -7   53.89   11.80
   3   9   7   45.30   14.40
   3   9   7  151.38   63.29
  -3   9  -7   55.49   12.30
   3   9   7   94.59   59.09
  -3   9  -7   66.39   49.50
  -3 -10   7   31.30    9.40
  -3 -10   7   36.10    8.70
   3 -10  -7   51.39   12.90
   3  10  -7   27.30   11.30
  -2 -10   7   83.29   48.60
  -2 -10   7  164.58   19.20
   2 -10  -7  159.98   17.90
  -2 -10   7  197.58   17.60
   2  10  -7  189.88   19.70
   2  10  -7   73.69   46.50
   1 -10  -7  196.58   13.10
   1 -10  -7  154.28   18.00
  -1 -10   7  329.27   66.49
  -1 -10   7  183.98   16.90
  -1  10   7  170.58   35.80
  -1  10   7  193.38   34.30
   1  10  -7  184.28   18.70
   1  10  -7  169.28   15.80
   1  10  -7  236.48   71.49
  -1  10   7  188.88   13.60
   0 -10   7   97.79   14.00
   0 -10  -7   83.99   14.50
   0 -10   7  122.99   48.60
   0 -10  -7   77.69    9.90
   0  10  -7  104.79   13.20
   0  10   7   59.89   29.50
   0  10   7   92.29   11.10
   0  10   7  140.59   39.80
   0  10  -7   75.19   37.00
   0  10  -7   77.19   12.30
  -1 -10  -7    9.20    5.80
  -1 -10  -7   15.10    5.50
   1 -10   7   22.80    7.20
   1  10   7   15.10    6.80
  -1  10  -7   15.90    6.10
   1  10   7    9.40    5.30
   1  10   7    7.60   17.00
  -1  10  -7   15.30    5.70
  -1  10  -7   16.20   33.60
   1  10   7   29.70   28.00
   2 -10   7  213.98   74.09
  -2 -10  -7  124.29   15.60
   2 -10   7   99.59   15.30
  -2 -10  -7  125.69   14.50
   2  10   7  110.49   43.20
   2  10   7  109.29   17.60
  -2  10  -7  116.89   11.20
   2  10   7  110.79   65.99
  -2  10  -7   59.49   49.20
  -2  10  -7  117.19   13.90
   2  10   7   92.19   15.80
  -3 -10  -7   76.19   13.20
   3 -10   7   78.99   13.70
  -3 -10  -7   57.69   14.20
   3 -10   7  -16.20   73.99
   3  10   7   82.59   52.79
  -3  10  -7   59.89   11.60
  -3  10  -7   37.30   61.09
   3  10   7  157.18   67.09
   3  10   7   80.39   16.10
   3 -11  -7  139.39   20.20
  -3 -11   7  115.39   16.90
  -3 -11   7   98.59   17.70
   3  11  -7   82.69   26.30
  -2 -11   7    2.70    5.10
   2 -11  -7   -1.30    4.50
  -2 -11   7   -4.50    3.90
  -2 -11   7   17.10   36.60
   2  11  -7   -4.50    4.40
   2  11  -7  -15.10   31.00
   1 -11  -7  121.29   10.40
  -1 -11   7  118.09   14.90
   1 -11  -7   97.99   16.40
   1  11  -7  104.59   12.90
  -1  11   7  134.99   36.70
   1  11  -7  131.09   59.49
   1  11  -7  111.79   16.90
  -1  11   7  101.39   10.40
  -1  11   7  101.29   34.80
   0 -11  -7  706.83   33.90
   0 -11   7  726.63   36.70
   0 -11  -7  662.73   38.00
   0 -11   7  751.52  104.09
   0  11   7  573.04   75.69
   0  11  -7  611.24   98.09
   0  11  -7  646.94   36.10
   0  11   7  600.44   73.89
   0  11   7  649.04   33.80
  -1 -11  -7   15.40    6.30
  -1 -11  -7   14.00    6.90
   1 -11   7   14.30    5.80
   1  11   7  -11.80   29.50
   1  11   7   16.60    6.70
  -1  11  -7   11.00    5.20
   1  11   7    4.50    5.00
  -1  11  -7   12.00    5.30
  -1  11  -7  -32.80   23.40
   1  11   7    4.70   22.70
  -2 -11  -7  370.96   28.00
   2 -11   7  348.57   25.60
  -2 -11  -7  412.96   27.60
  -2  11  -7  390.86   26.00
   2  11   7  325.77   27.50
  -2  11  -7  371.86   79.99
  -2  11  -7  401.46   22.40
   2  11   7  371.06   28.30
   3 -11   7  -12.70    5.20
   3 -11   7   37.10   76.49
  -3 -11  -7    3.90    5.80
  -3 -11  -7   -2.30    4.80
  -3  11  -7   -4.30    4.40
   3  11   7    3.70    6.80
   3  11   7  -20.60   71.39
   3  11   7  -33.00   33.20
   3 -12  -7   12.90    9.40
  -3 -12   7   13.00    8.80
  -3 -12   7    3.80    6.90
   3  12  -7   18.90    9.60
  -2 -12   7  416.56   32.60
  -2 -12   7  348.57   90.79
   2 -12  -7  449.16   31.80
  -2 -12   7  437.86   28.90
   2  12  -7  320.57  139.69
   2  12  -7  447.66   32.40
  -1 -12   7  119.49   13.70
  -1 -12   7  178.08   51.29
   1 -12  -7  109.09   10.20
   1 -12  -7   81.29   15.00
   1  12  -7   63.19   44.50
  -1  12   7   89.29   10.20
   1  12  -7   98.19   12.30
   1  12  -7   98.19   16.20
  -1  12   7  124.29   25.80
  -1  12   7  110.79   35.80
   0 -12  -7   12.20    6.50
   0 -12   7   28.30   31.00
   0 -12   7   22.80    7.80
   0 -12  -7   23.30    6.70
   0  12   7   24.00   26.20
   0  12   7   19.70    7.30
   0  12  -7   72.39   35.30
   0  12  -7   24.00    7.60
   0  12   7  -13.60   16.30
   0  12  -7   29.50    7.80
   0  12   7   20.40    7.30
  -1 -12  -7  179.68   18.20
   1 -12   7  157.78   16.40
  -1 -12  -7  187.98   18.30
   1  12   7  191.48   18.50
  -1  12  -7  167.08   15.90
   1  12   7  144.39   17.60
  -1  12  -7  185.48   74.39
   1  12   7  157.28   57.09
  -1  12  -7  164.78   16.00
   1  12   7  144.59   50.19
  -2 -12  -7    3.40    5.50
   2 -12   7   -1.10   48.40
  -2 -12  -7   11.10    6.50
   2 -12   7   -2.60    3.10
   2  12   7   -0.20    4.80
   2  12   7  -18.70   37.40
   2  12   7   50.79   44.10
   2  12   7    4.30    6.40
  -2  12  -7   -0.80    3.20
  -2  12  -7    2.70   50.39
  -2  12  -7    3.40    4.50
  -2 -13   7   61.29   35.80
   2 -13  -7   -0.10    5.00
  -2 -13   7    3.70    4.70
  -2 -13   7    1.40    4.90
   2  13  -7   17.70   39.20
   2  13  -7    3.10    7.10
  -1 -13   7  247.98   20.90
   1 -13  -7  237.68   22.40
   1 -13  -7  230.78   15.70
  -1 -13   7  187.38   80.89
  -1  13   7  207.38   16.20
  -1  13   7  251.57   44.50
   1  13  -7  231.18   22.40
   1  13  -7  233.18   19.70
   1  13  -7  324.37  100.79
  -1  13   7  208.58   44.40
   0 -13   7   42.50   10.20
   0 -13  -7   44.00    9.50
   0 -13  -7   38.90   10.50
   0  13  -7   18.50   34.40
   0  13   7   64.49   12.00
   0  13   7   33.50   27.30
   0  13   7   37.60   10.50
   0  13  -7   25.70    8.10
   0  13  -7   48.10   10.80
   0  13   7   -0.30   32.30
  -1 -13  -7  117.19   14.20
   1 -13   7  220.68   80.39
   1 -13   7  127.19   15.30
  -1 -13  -7  114.69   17.50
   1  13   7  159.98   63.79
   1  13   7   63.59   40.20
  -1  13  -7  136.39   65.99
   1  13   7  103.79   18.40
   1  13   7  138.09   16.40
  -1  13  -7  118.99   14.00
  -1  13  -7  129.59   14.30
   2 -13   7  -29.30   52.99
  -2 -13  -7   -0.90    3.90
  -2 -13  -7   -3.40    4.80
   2 -13   7   -4.80    3.70
   2  13   7  -20.30   52.09
   2  13   7   14.00    7.30
   2  13   7   -3.60    4.50
  -2  13  -7    0.80    4.70
  -2  13  -7    7.10    4.40
   2  13   7  -43.30   33.80
  -2 -14   7   56.69   11.60
  -2 -14   7   33.90   53.29
  -2 -14   7   97.09   20.30
   2 -14  -7   77.29   15.20
   2  14  -7  -28.90   43.10
   2  14  -7   59.09   12.50
  -1 -14   7   25.10    8.80
   1 -14  -7   10.30    7.60
   1 -14  -7   27.00    6.30
  -1 -14   7   12.10    6.40
  -1  14   7   76.09   35.20
   1  14  -7   16.60    8.10
   1  14  -7   33.20   47.60
  -1  14   7   50.09   20.70
   0 -14  -7   46.70    9.80
   0 -14   7   54.59   11.50
   0 -14   7   84.79   37.40
   0 -14  -7   53.19   12.70
   0  14   7  122.69   40.30
   0  14  -7   68.29   58.39
   0  14  -7   28.30    8.70
   0  14  -7   50.39   10.70
   0  14   7   44.20   11.70
   0  14   7   67.09   32.30
   0  14   7   42.20   10.10
   1 -14   7  126.09   58.19
  -1 -14  -7  108.49   18.20
  -1 -14  -7  137.49   16.20
   1 -14   7  152.58   16.60
   1  14   7  107.19   48.10
  -1  14  -7  116.09   14.20
  -1  14  -7  162.88   64.79
   1  14   7  137.19   21.50
  -1  14  -7  113.39   16.40
   1  14   7  147.79   62.89
   1  14   7  130.99   23.40
  -2 -14  -7    2.70    5.50
  -2 -14  -7   27.50    9.50
   2 -14   7   -7.90   54.09
   2 -14   7    2.40    6.30
   2  14   7   -1.70    8.80
   2  14   7    2.10    7.60
  -2  14  -7   11.50    6.00
   2  14   7  -19.30   39.20
  -2 -15   7   28.00    9.10
   2 -15  -7   55.39   11.90
  -2 -15   7  -50.09   45.40
  -2 -15   7   26.50   10.60
   2  15  -7   42.20   11.60
  -1 -15   7   22.60    8.90
   1 -15  -7   31.80    9.70
  -1 -15   7   65.09   49.40
  -1 -15   7   33.40   11.20
   1 -15  -7   46.40    8.20
   1  15  -7   32.40   11.10
  -1  15   7   -1.50   24.60
   1  15  -7   59.09   43.40
   0 -15   7  303.07   25.10
   0 -15  -7  369.46   29.00
   0 -15   7  459.75  112.19
   0 -15  -7  383.56   25.40
   0  15   7  338.07   25.80
   0  15   7  409.56   63.19
   0  15  -7  336.37   26.50
   0  15  -7  347.17   99.39
   0  15  -7  328.57   25.20
   0  15   7  336.67   30.10
  -1 -15  -7   54.99   13.30
   1 -15   7   51.29   52.49
  -1 -15  -7   32.70    9.80
   1 -15   7   33.10   10.20
  -1  15  -7   35.70    9.00
   1  15   7   32.80   10.70
   1  15   7   13.00    9.50
   1  15   7   44.70   40.70
   1  15   7   -3.60   41.30
  -1  15  -7   34.90    9.20
   2 -15   7   10.80    6.30
  -2 -15  -7   12.40    8.80
   2 -15   7   40.70   48.40
  -2 -15  -7   15.00    6.50
  -2  15  -7  -60.69   52.39
   2  15   7    2.80    8.30
  -2  15  -7    8.20    6.10
   2  15   7  -25.80   45.80
   2  15   7  108.99   60.49
  -2  15  -7   13.20    6.90
   2  15   7   -1.80    7.20
  -2 -16   7   -2.20    6.90
  -2 -16   7  -10.40    7.20
  -2 -16   7  130.49   65.99
   2 -16  -7   -1.00    4.40
   2  16  -7    7.90    8.30
   2  16  -7   15.10   56.59
  -1 -16   7    0.30    6.10
   1 -16  -7    9.20    4.20
  -1 -16   7   28.60   44.30
  -1 -16   7    4.60    6.70
   1 -16  -7   18.10    7.90
  -1  16   7   -4.30   27.70
   1  16  -7    8.10    6.50
   1  16  -7  -26.60   41.00
   0 -16  -7   24.30    9.20
   0 -16  -7   25.20    9.20
   0 -16   7  136.89   57.49
   0 -16   7   31.90    9.90
   0  16  -7   45.80   51.09
   0  16   7   52.49   38.30
   0  16  -7   22.70    7.40
   0  16   7   21.20    8.50
   0  16  -7   47.50   11.50
   0  16   7   30.40   10.40
  -1 -16  -7   -0.80    4.90
  -1 -16  -7   21.40    9.00
   1 -16   7  -27.00   44.60
  -1  16  -7   14.10    8.20
   1  16   7    5.70   33.80
   1  16   7    2.50    6.90
  -1  16  -7   10.80    6.60
   1  16   7  -60.89   51.19
   1  16   7    9.50    8.60
   2 -16   7  118.39   27.70
  -2 -16  -7   75.39   16.20
   2  16   7   88.99   19.40
   2  16   7   65.09   15.90
   2  16   7  222.78   73.69
   2  16   7   42.50   86.49
  -2  16  -7   97.89   15.40
  -2  16  -7   85.09   14.50
  -1 -17   7   43.90   13.50
   1 -17  -7   41.10   12.60
   1 -17  -7   63.99   10.60
  -1 -17   7   25.00   11.10
   1 -17  -7   51.09    9.20
  -1 -17   7  149.09   76.29
   1  17  -7   42.00   13.30
  -1  17   7  127.89   58.69
   1  17  -7  119.99   69.59
   0 -17  -7   11.80    8.10
   0  17  -7   16.00    7.50
   0  17   7   19.90    8.00
   0  17   7   16.10    8.80
   0  17  -7   -6.80   54.79
   0  17  -7   18.00    7.40
   0  17   7   -1.20   27.20
  -1 -17  -7  120.29   19.70
   1 -17   7   97.79   58.09
  -1 -17  -7  126.09   19.70
   1 -17   7  114.29   18.80
   1  17   7  106.29   19.90
   1  17   7  196.68   92.89
  -1  17  -7   12.80   74.49
  -1  17  -7  140.99   16.30
   1  17   7  123.99   20.00
  -1  17  -7  123.69   18.20
  -1 -18   7  -82.59   52.49
   1 -18  -7    4.10    7.60
   1 -18  -7   10.20    5.20
  -1 -18   7    6.20    9.80
   1 -18  -7    9.30    4.90
  -1 -18   7    4.10    7.00
   1  18  -7  -70.19   77.39
   1  18  -7   11.80    6.80
   0 -18   7    5.60    7.30
   0 -18  -7    1.20    7.00
   0 -18  -7    4.70    5.50
   0 -18   7   -5.10   54.29
   0  18  -7    1.80    8.30
   0  18  -7   36.20   55.49
   0  18   7  -45.00   47.60
   0  18   7    9.80    6.60
  -1 -18  -7   19.50    8.20
  -1 -18  -7   24.30    9.40
   1 -18   7   93.89   60.59
  -1  18  -7  -98.99   79.89
  -1  18  -7    7.00    6.50
   1  18   7   14.60   10.90
   1  18   7  -32.60   78.29
   1  18   7   34.30   12.10
  -1  18  -7   18.30    7.70
   0 -19   7   82.79   18.70
   0 -19   7   63.89   58.59
   0  19  -7  133.89   20.80
   0  19  -7   85.59   94.49
   0  19   7  103.49   22.40
  -3   0   8  100.29    8.50
  -3   0   8   94.59    8.30
  -2   0   8  177.58   12.70
   2   0  -8  208.58   54.29
   2   0  -8  219.78   13.70
  -2   0   8  154.48   44.00
   1   0  -8  267.87   51.09
   1   0  -8  332.17   22.20
  -1   0   8  284.17   17.70
  -1   0   8  310.87   49.30
   0   0   8  169.18   13.90
   0   0   8  194.38   42.50
   0   0  -8  167.48   13.80
   0   0  -8  114.09   37.00
  -1   0  -8  136.09   13.70
   1   0   8   92.89   38.10
  -1   0  -8  237.18   62.89
  -1   0  -8  141.29   13.80
   1   0   8  129.99   13.20
   2   0   8  210.48   70.69
  -2   0  -8  128.39   44.60
   2   0   8  134.99   14.80
  -2   0  -8  128.79   11.80
  -2   0  -8  146.69   15.50
   3   0   8    9.20    6.20
  -3   0  -8   -5.20   35.20
  -3   0  -8   15.90    6.50
  -3  -1   8   87.09    9.30
  -3   1   8   78.79    6.80
  -3   1   8   87.89    6.60
  -2  -1   8    2.20    2.60
  -2  -1   8   -2.30   17.20
   2  -1  -8   24.20   17.80
   2  -1  -8    2.70    2.10
  -2   1   8   -1.10    1.60
  -2   1   8    2.80   16.20
   2   1  -8   -0.10    2.20
  -1  -1   8  308.27   76.79
  -1  -1   8  225.18   15.80
   1  -1  -8  241.48   42.40
   1  -1  -8  226.88   15.00
  -1   1   8  199.38   43.30
   1   1  -8  207.58   14.90
  -1   1   8  229.38   20.00
   1   1  -8  226.28   48.80
   0  -1   8  161.78   13.60
   0  -1  -8  224.08   45.30
   0  -1   8  185.38   40.00
   0  -1  -8  145.69   12.70
   0   1  -8  136.69   12.60
   0   1   8  186.78   58.09
   0   1   8  160.38   13.40
   0   1  -8  165.58   52.69
  -1  -1  -8  142.79   14.10
   1  -1   8  163.48   53.29
  -1  -1  -8  136.59   13.90
   1  -1   8  151.78   14.10
  -1  -1  -8  189.38   55.29
  -1   1  -8  154.58   14.50
   1   1   8  213.18   45.10
  -1   1  -8  179.48   50.29
   1   1   8  136.59   13.50
  -2  -1  -8   29.70    6.70
   2  -1   8   23.70    6.80
  -2  -1  -8   33.20   27.20
   2  -1   8   42.60   26.80
  -2  -1  -8   22.40    6.80
   2   1   8   72.79   26.00
   2   1   8   22.80    7.10
  -2   1  -8   40.60   31.40
  -2   1  -8   25.20    6.20
  -2   1  -8   24.20    7.80
  -3  -1  -8   -0.30    1.90
  -3  -1  -8    4.50    6.00
   3  -1   8    4.10    4.70
   3   1   8   -0.10    5.90
   3   1   8   55.49   35.00
  -3   1  -8    2.50    4.90
  -3   1  -8  -20.90   28.30
  -3  -2   8  548.25   26.30
  -3  -2   8  564.24   28.00
  -3   2   8  569.34   50.59
   2  -2  -8   49.99   26.10
  -2  -2   8   43.50    7.70
  -2  -2   8   47.30   16.70
   2  -2  -8   43.60    6.50
  -2   2   8   79.69   23.60
   2   2  -8   48.20   30.20
   2   2  -8   42.40    7.70
  -1  -2   8   -1.30    2.10
   1  -2  -8    7.90   12.60
  -1  -2   8   -4.80   11.00
   1  -2  -8   -3.80    1.40
  -1   2   8   26.80   12.40
  -1   2   8    1.30    2.20
   1   2  -8   -9.30   15.60
   1   2  -8   -0.80    2.00
   0  -2  -8  388.86   22.40
   0  -2   8  392.26   22.80
   0  -2  -8  388.56   59.49
   0  -2   8  412.16   64.89
   0   2  -8  388.06   64.49
   0   2  -8  375.76   22.30
   0   2   8  377.76   22.10
   0   2   8  381.56   59.59
   1  -2   8   76.69   31.80
  -1  -2  -8   71.99   11.60
   1  -2   8   84.59   10.50
  -1  -2  -8   68.19   40.40
  -1  -2  -8   61.09   11.20
  -1   2  -8   81.99   37.60
  -1   2  -8   77.79   12.10
   1   2   8  101.69   39.70
   1   2   8   73.99   11.70
  -2  -2  -8   70.99   12.60
  -2  -2  -8   46.20   37.80
   2  -2   8   57.39   10.50
   2  -2   8   70.79   43.50
  -2  -2  -8   55.59    9.20
  -2   2  -8   52.19    8.50
   2   2   8   46.60   29.40
   2   2   8   53.99   11.10
  -2   2  -8   83.69   40.40
  -2   2  -8   54.09   10.90
  -3  -2  -8   27.10   42.90
  -3  -2  -8   67.89   12.80
  -3  -2  -8   85.29    7.70
   3  -2   8  125.99   63.19
   3  -2   8   92.09   15.90
  -3   2  -8  141.09   99.09
   3   2   8  178.78   51.19
   3   2   8  109.29   17.40
  -3   2  -8   77.09   14.20
  -3  -3   8    2.50    2.80
   3  -3  -8    0.30    5.60
  -3  -3   8    8.20    4.20
  -2  -3   8   73.59   30.50
   2  -3  -8   79.09    7.10
   2  -3  -8   64.69   24.00
  -2  -3   8   72.39   10.60
  -2   3   8  106.39   34.70
  -2   3   8   84.89    7.00
   2   3  -8  101.79   45.80
   2   3  -8   65.99    8.30
   1  -3  -8  416.46   21.20
   1  -3  -8  412.86   57.39
  -1  -3   8  410.56   23.20
  -1  -3   8  430.26   69.49
  -1   3   8  420.06   58.89
  -1   3   8  393.16   20.60
   1   3  -8  423.76   23.00
   1   3  -8  378.56   63.39
   0  -3  -8   34.80    9.00
   0  -3   8   42.70   22.80
   0  -3   8   25.20    6.40
   0  -3  -8   27.90   20.00
   0  -3  -8   31.50    6.80
   0   3   8   55.19   24.70
   0   3  -8   15.20   28.60
   0   3   8   34.10    7.30
   0   3  -8   30.20    7.00
  -1  -3  -8   10.10    4.50
   1  -3   8   39.90   27.30
  -1  -3  -8   16.30   20.40
   1  -3   8   15.20    5.80
  -1  -3  -8   10.90    5.10
  -1   3  -8   16.30    6.20
   1   3   8    7.70    4.30
   1   3   8   29.80   23.50
  -1   3  -8    3.30   19.80
  -2  -3  -8  521.35   31.60
  -2  -3  -8  519.75   82.79
   2  -3   8  541.65   31.50
   2  -3   8  565.04   86.59
  -2  -3  -8  511.75   27.10
  -2   3  -8  459.25   82.09
   2   3   8  482.85   85.29
   2   3   8  499.15   31.00
  -2   3  -8  496.85   25.10
  -2   3  -8  541.95   31.10
   3  -3   8  519.05  101.69
  -3  -3  -8  319.67   26.30
   3  -3   8  339.27   26.20
  -3  -3  -8  321.17   84.79
  -3  -3  -8  343.57   17.90
   3   3   8  503.75   91.89
   3   3   8  304.97   26.00
  -3   3  -8  312.27   25.20
  -3   3  -8  315.27   90.99
   3  -4  -8   -7.00    4.60
  -3  -4   8    1.50    3.50
   2  -4  -8  448.86   31.90
  -2  -4   8  424.26   74.49
   2  -4  -8  380.26   42.10
   2  -4  -8  457.05   18.90
  -2  -4   8  423.46   24.20
  -2   4   8  454.85   54.19
  -2   4   8  422.66   17.90
   2   4  -8  468.05   24.80
   2   4  -8  438.36   76.99
  -1  -4   8  131.59   49.60
  -1  -4   8  169.68   14.10
   1  -4  -8  170.48   12.30
   1  -4  -8  110.89   34.10
   1  -4  -8  163.58   17.70
   1   4  -8  256.97   47.60
  -1   4   8  164.98   12.00
  -1   4   8  138.29   40.30
   1   4  -8  155.08   13.50
   0  -4  -8   -3.70    2.70
   0  -4  -8    2.30    3.00
   0  -4  -8    3.80   12.30
   0  -4   8   -5.10   13.90
   0  -4   8    3.10    2.50
   0   4  -8   30.90   21.70
   0   4   8   -0.20    1.80
   0   4  -8    1.00    2.40
   1  -4   8  251.77   19.00
  -1  -4  -8  219.98   18.50
  -1  -4  -8  196.58   54.39
   1  -4   8  316.07   57.19
  -1  -4  -8  245.68   19.20
   1   4   8  324.77   81.69
   1   4   8  234.18   18.30
  -1   4  -8  253.47   19.10
  -1   4  -8  201.68   58.29
  -2  -4  -8    3.90    3.60
  -2  -4  -8   -7.10    3.30
   2  -4   8    4.50    4.90
   2  -4   8   21.50   34.50
  -2  -4  -8   -6.10   23.30
  -2   4  -8   -2.00    3.90
  -2   4  -8    1.50    2.90
   2   4   8   60.69   36.30
   2   4   8    5.10    3.10
   3  -4   8  461.25   44.90
  -3  -4  -8  321.27   18.50
  -3  -4  -8  304.67   26.30
   3  -4   8  213.08   90.09
  -3   4  -8  307.57   24.90
  -3   4  -8  294.37   90.49
   3   4   8  317.47   32.50
   3  -5  -8   85.99   17.30
  -3  -5   8   71.29   12.50
  -3  -5   8   88.39   11.00
   2  -5  -8   40.90   10.80
  -2  -5   8   -3.30   25.30
   2  -5  -8   23.70    4.10
   2  -5  -8   37.10   18.60
  -2  -5   8   19.20    6.10
   2   5  -8   24.60    6.30
  -2   5   8   25.90    3.70
   2   5  -8   14.00   21.60
  -2   5   8   14.00   18.60
   1  -5  -8   39.90    6.60
   1  -5  -8   40.20   10.40
  -1  -5   8   38.60    8.40
   1  -5  -8   74.69   25.10
  -1  -5   8   69.59   34.70
   1   5  -8   42.10    8.40
  -1   5   8   68.39   26.90
   1   5  -8   40.00   26.70
  -1   5   8   37.90    6.50
   0  -5  -8  965.20   92.69
   0  -5   8  940.21   42.20
   0  -5  -8  990.40   47.10
   0  -5   8  958.00  113.99
   0  -5  -8 1008.80   41.40
   0   5   8  944.11   96.39
   0   5  -8  961.80  112.69
   0   5  -8  931.81   41.40
   0   5   8  983.90   40.80
  -1  -5  -8  430.96   69.29
   1  -5   8  412.16   25.30
  -1  -5  -8  368.76   25.00
  -1  -5  -8  374.46   24.60
   1  -5   8  328.27   69.99
   1   5   8  415.56   25.30
  -1   5  -8  428.96   25.80
  -1   5  -8  395.66   73.09
   1   5   8  365.76   69.49
  -2  -5  -8  -38.70   25.80
  -2  -5  -8   -2.90    2.20
  -2  -5  -8    3.40    4.20
  -2   5  -8   -3.10    2.30
   2   5   8   -4.20    3.70
  -2   5  -8    4.90    4.60
   2   5   8  -38.00   27.90
   3  -5   8   52.49   70.99
  -3  -5  -8  176.78   20.40
  -3  -5  -8  145.69   13.00
   3  -5   8  142.89   22.20
   3   5   8  143.39   30.50
  -3   5  -8   99.29   62.69
  -3   5  -8  164.88   17.60
   3  -6  -8   42.80   11.60
  -3  -6   8   44.40    9.20
  -3  -6   8   25.60    9.00
   3   6  -8   33.90   10.70
  -2  -6   8   21.60   29.60
   2  -6  -8   42.60   11.60
   2  -6  -8   29.20    3.70
  -2  -6   8   39.00    8.90
   2   6  -8   28.10    7.30
   2   6  -8   27.60   22.00
  -2   6   8   51.69   17.90
  -1  -6   8  221.78   48.50
  -1  -6   8  193.48   15.80
   1  -6  -8  164.08   12.20
   1  -6  -8  138.89   17.40
   1   6  -8  107.89   41.20
  -1   6   8  158.58   44.80
  -1   6   8  164.08   12.00
   1   6  -8  170.58   14.70
   0  -6  -8  464.55   25.50
   0  -6  -8  478.65   30.40
   0  -6   8  481.65   27.50
   0  -6  -8  404.86   58.39
   0  -6   8  478.15   80.39
   0   6  -8  434.16   25.80
   0   6   8  501.15   67.29
   0   6   8  479.95   25.50
   0   6  -8  516.15   86.39
  -1  -6  -8  926.71   43.50
   1  -6   8  917.41  111.39
  -1  -6  -8  952.80   43.10
  -1  -6  -8  788.62   94.09
  -1   6  -8  899.51  108.99
   1   6   8  714.53  119.09
  -1   6  -8  916.71   41.90
   1   6   8  860.61   41.20
   2  -6   8  200.78   76.99
  -2  -6  -8  140.09   16.00
   2  -6   8  172.68   16.90
  -2  -6  -8  156.28   15.10
  -2  -6  -8  186.18   54.19
  -2   6  -8  209.28   70.39
   2   6   8  174.68   17.80
  -2   6  -8  155.98   12.30
  -2   6  -8  179.18   17.10
   2   6   8  140.19   56.89
   3  -6   8  180.58   68.39
  -3  -6  -8   44.80    8.50
   3  -6   8   35.70    9.30
   3   6   8   -1.70   41.70
  -3   6  -8   21.40   43.50
   3   6   8   39.80   10.40
   3   6   8   -7.20   29.30
  -3  -7   8   32.90    8.80
   3  -7  -8   26.80   11.40
  -3  -7   8   28.60    9.00
   3   7  -8   28.50    9.20
  -2  -7   8   -5.50   21.60
   2  -7  -8    5.90    5.80
   2  -7  -8    8.90    2.90
  -2  -7   8   11.80    6.50
  -2  -7   8    6.80    4.80
   2   7  -8  -23.10   26.10
  -2   7   8    5.40   10.70
   1  -7  -8  222.78   20.90
  -1  -7   8  214.08   17.20
  -1  -7   8  250.57   77.99
   1  -7  -8  200.88   13.60
   1  -7  -8  139.89   32.90
  -1   7   8  215.88   43.10
  -1   7   8  199.38   13.60
   1   7  -8  190.48   16.10
   1   7  -8   96.49   44.50
   0  -7  -8    4.80   16.70
   0  -7   8   25.70   22.30
   0  -7  -8   17.40    6.60
   0  -7  -8   14.40    5.40
   0  -7   8   10.60    5.00
   0   7  -8   22.60   19.20
   0   7   8   28.80   24.20
   0   7   8   14.80    5.50
   0   7  -8    8.30    5.20
   1  -7   8   97.59   45.50
   1  -7   8   54.09   11.10
  -1  -7  -8   62.89   11.70
  -1  -7  -8   40.10   29.00
  -1  -7  -8   54.99   10.80
  -1   7  -8  125.39   41.10
  -1   7  -8   59.99   17.10
   1   7   8   53.09   10.20
   1   7   8   32.50   29.70
  -2  -7  -8  266.47   19.90
  -2  -7  -8  215.48   20.50
   2  -7   8  264.07   21.40
   2  -7   8  302.77   92.29
   2   7   8  280.97   23.40
  -2   7  -8  277.27   21.70
  -2   7  -8  273.97   16.90
  -2   7  -8  282.87   75.79
  -3  -7  -8    4.70    3.40
  -3  -7  -8   -6.10    4.30
   3  -7   8   -6.60    3.80
   3  -7   8  -10.60   58.79
   3   7   8   -1.90    5.40
   3   7   8   79.89   44.20
   3   7   8   10.60   38.90
  -3   7  -8   -6.70    3.40
  -3  -8   8   69.79   14.00
  -3  -8   8   59.89   11.10
   3  -8  -8  107.59   19.10
   3   8  -8   63.09   14.00
  -2  -8   8  143.19   14.80
  -2  -8   8  121.99   15.60
   2  -8  -8  171.18   19.10
   2  -8  -8  154.38    7.10
  -2  -8   8  129.89   56.89
  -2   8   8  146.59   19.20
   2   8  -8  121.29   99.19
   2   8  -8  106.39   17.60
  -2   8   8  174.68   22.60
   1  -8  -8  282.97   16.80
  -1  -8   8  317.37   21.80
   1  -8  -8  308.97   25.10
  -1  -8   8  170.18   65.59
   1   8  -8  330.97   87.39
   1   8  -8  266.27   19.60
  -1   8   8  261.57   47.40
  -1   8   8  263.67   16.40
   0  -8  -8 1903.71   75.69
   0  -8   8 1886.81  170.28
   0  -8  -8 1839.82  131.79
   0  -8   8 1847.32   70.49
   0  -8  -8 1892.21   67.99
   0   8  -8 1836.82  169.08
   0   8   8 1697.13  134.59
   0   8   8 1900.41   67.99
   0   8  -8 1868.31   69.69
  -1  -8  -8 1335.17   55.89
  -1  -8  -8 1233.38  119.59
   1  -8   8 1348.86  145.19
   1  -8   8 1251.87   54.59
  -1   8  -8 1370.66  143.89
   1   8   8 1185.08  128.59
  -1   8  -8 1361.66   55.29
   1   8   8 1279.97   55.19
  -1   8  -8 1241.88   52.29
  -2  -8  -8   44.40   10.60
   2  -8   8  130.69   45.60
   2  -8   8   53.59   11.00
  -2  -8  -8   50.19   11.80
   2   8   8   44.20   11.70
  -2   8  -8   44.30    7.90
  -2   8  -8   42.50   10.10
  -2   8  -8   73.49   49.90
   2   8   8  120.29   47.60
  -3  -8  -8    0.90    5.80
   3  -8   8   27.30   61.19
   3  -8   8    1.50    4.50
   3   8   8  -39.30   26.20
  -3   8  -8    1.20    5.50
  -3   8  -8    9.70   56.79
   3   8   8   31.80   46.10
   3   8   8   -7.70    7.20
  -3  -9   8   14.40    9.00
   3  -9  -8    9.40    9.10
  -3  -9   8   28.30    7.80
  -2  -9   8   59.99   14.00
  -2  -9   8   55.69   10.90
   2  -9  -8   82.49   15.50
   2  -9  -8   57.19    3.30
  -2  -9   8  107.79   40.30
   2   9  -8   55.59   13.00
   2   9  -8   81.79   49.60
  -1  -9   8  168.38   55.29
   1  -9  -8  143.39   17.10
  -1  -9   8  149.09   14.90
   1  -9  -8  146.49   11.80
  -1   9   8  150.28   12.20
   1   9  -8  153.48   15.20
   1   9  -8  143.79   16.50
   1   9  -8   92.29   50.29
  -1   9   8  111.29   37.60
   0  -9  -8 1409.76   62.59
   0  -9   8 1467.35  152.48
   0  -9   8 1566.84   67.99
   0  -9  -8 1438.76   55.89
   0   9   8 1465.15   56.39
   0   9   8 1165.28  113.29
   0   9  -8 1480.25   60.99
   0   9  -8 1336.37  145.59
   0   9  -8 1346.77   56.49
   1  -9   8 1186.78   52.89
  -1  -9  -8 1184.88   53.09
   1  -9   8 1230.58  139.59
  -1  -9  -8 1241.78   55.29
   1   9   8 1054.69  119.69
  -1   9  -8 1333.77  146.29
  -1   9  -8 1218.98   52.19
   1   9   8 1144.69   52.69
  -1   9  -8 1204.48   50.79
   2  -9   8   34.80   47.60
  -2  -9  -8   18.20    6.80
  -2  -9  -8   19.60    7.90
   2  -9   8   18.50    6.90
  -2   9  -8  -16.50   36.70
  -2   9  -8   13.20    4.90
  -2   9  -8   30.20    8.30
   2   9   8   17.50    7.90
   2   9   8   48.60   27.20
  -3  -9  -8   87.89   17.30
   3  -9   8   89.99   16.30
  -3  -9  -8   64.89   11.90
  -3   9  -8  -19.30   61.29
   3   9   8   77.49   18.30
   3   9   8  -13.50   46.90
  -3   9  -8   60.99   11.40
   3   9   8   83.79   67.89
  -3 -10   8   23.20   10.00
  -3 -10   8   18.00    7.00
   3 -10  -8   47.60   13.00
   3  10  -8    7.20   10.30
  -2 -10   8  381.66   26.40
  -2 -10   8  391.46   30.70
  -2 -10   8  333.07  150.68
   2 -10  -8  402.16   30.90
   2  10  -8  446.66  110.49
   2  10  -8  391.16   30.40
   1 -10  -8  544.95   26.00
   1 -10  -8  559.34   36.30
  -1 -10   8  504.45   30.90
  -1 -10   8  659.33   96.69
   1  10  -8  573.34   31.70
  -1  10   8  487.55   64.49
   1  10  -8  548.05   35.20
  -1  10   8  547.05   60.69
  -1  10   8  547.35   26.80
   1  10  -8  517.95   97.89
   0 -10   8   62.59   46.80
   0 -10  -8   21.10    6.40
   0 -10  -8   22.80    7.40
   0 -10   8   23.40    6.90
   0  10  -8  102.29   38.20
   0  10  -8    9.70    6.60
   0  10   8   13.70    6.10
   0  10   8   43.00   26.70
   1 -10   8  165.58   70.79
  -1 -10  -8  152.98   16.70
  -1 -10  -8  159.78   16.80
   1 -10   8  139.99   15.30
   1  10   8  138.19   15.50
  -1  10  -8  134.29   14.40
  -1  10  -8  127.29   14.10
   1  10   8   94.79   42.30
  -1  10  -8  178.78   72.39
   1  10   8  119.59   42.70
   2 -10   8   31.00    8.20
  -2 -10  -8   31.20    9.40
  -2 -10  -8   40.10    9.80
  -2  10  -8   34.00   43.70
   2  10   8   39.70   11.20
  -2  10  -8   26.10    8.30
  -2  10  -8   27.70    6.80
   2  10   8   -3.80   30.80
  -3 -10  -8   72.49   12.90
  -3 -10  -8  120.69   20.70
   3  10   8   86.79   18.80
  -3  10  -8   95.89   15.50
   3  10   8   17.20   44.30
   2 -11  -8   42.30   12.30
  -2 -11   8   45.90   10.60
  -2 -11   8   49.20   12.20
   2  11  -8   52.99   12.20
   1 -11  -8  311.87   26.50
  -1 -11   8  274.27   74.69
  -1 -11   8  277.67   22.00
   1 -11  -8  291.57   17.90
   1  11  -8  398.86  103.39
  -1  11   8  292.97   18.90
  -1  11   8  255.37   45.00
   1  11  -8  302.97   25.90
  -1  11   8  318.47   94.49
   1  11  -8  328.67   25.50
   0 -11  -8    8.90    4.50
   0 -11   8   13.20    6.30
   0 -11   8   16.10   38.40
   0 -11  -8   13.60    5.70
   0  11   8   22.20   13.60
   0  11   8    5.30   22.10
   0  11  -8   13.90    6.10
   0  11  -8   18.30    7.70
   0  11   8    3.40    4.40
   0  11  -8   27.10   36.00
  -1 -11  -8    6.80    6.00
   1 -11   8   12.20    6.10
  -1 -11  -8    5.80    4.50
   1 -11   8  -35.20   34.70
   1  11   8    6.10    4.90
   1  11   8  -17.00   24.70
   1  11   8  -20.30   32.90
  -1  11  -8   22.10   27.80
  -1  11  -8    6.20    5.20
  -1  11  -8   20.50    7.20
  -2 -11  -8  295.37   25.80
   2 -11   8  286.77   23.80
  -2 -11  -8  323.97   25.20
  -2  11  -8  240.58   83.59
   2  11   8  232.48   78.19
  -2  11  -8  332.37   21.10
   2  11   8  205.58   67.79
   2  11   8  329.97   27.80
  -2  11  -8  336.77   24.80
   2 -12  -8    5.00    7.60
  -2 -12   8   10.90    4.50
  -2 -12   8    9.60    6.60
   2  12  -8    9.20    6.60
   2  12  -8  -40.10   32.40
  -1 -12   8  221.08   20.30
   1 -12  -8  257.37   16.60
   1 -12  -8  242.88   23.30
  -1 -12   8  383.76   82.49
   1  12  -8  207.78   62.89
  -1  12   8  186.18   52.09
   1  12  -8  234.08   19.80
   1  12  -8  222.98   21.80
  -1  12   8  213.78   16.60
  -1  12   8  257.67   40.50
   0 -12  -8  200.78   20.60
   0 -12   8  192.98   18.50
   0 -12  -8  184.98   16.60
   0 -12   8  240.18   72.19
   0  12  -8  172.38   63.09
   0  12  -8  187.58   19.00
   0  12   8  213.68   62.79
   0  12   8  237.88   50.29
   0  12   8  206.78   18.20
   0  12  -8  218.88   19.50
  -1 -12  -8   39.40   10.40
   1 -12   8   60.19   56.49
   1 -12   8   49.99   11.40
  -1 -12  -8   41.10   11.00
   1  12   8  -47.60   40.40
  -1  12  -8    4.20   40.40
   1  12   8   10.10   31.10
  -1  12  -8   29.60    8.70
   1  12   8   42.80   10.90
  -1  12  -8   33.90    8.60
  -2 -12  -8  188.38   20.10
  -2 -12  -8  198.78   22.10
   2 -12   8  160.28  100.39
   2  12   8   77.69   56.39
  -2  12  -8   98.09   64.79
   2  12   8  214.28   22.60
   2  12   8  134.69   69.89
  -2  12  -8  186.28   16.30
  -2  12  -8  201.48   19.00
   2 -13  -8   97.09   18.30
  -2 -13   8   23.40   47.40
  -2 -13   8   75.19   14.30
  -2 -13   8   57.69   18.80
   2  13  -8   12.60   43.60
  -1 -13   8  205.98   68.89
   1 -13  -8  217.18   23.00
   1 -13  -8  258.67   16.70
  -1 -13   8  202.88   20.00
   1  13  -8  204.28   19.00
   1  13  -8  201.68   74.79
  -1  13   8  224.08   43.30
   1  13  -8  192.08   21.60
  -1  13   8  188.28   15.90
  -1  13   8  176.08   48.50
   0 -13  -8   -0.20    3.90
   0 -13   8   14.60   27.90
   0 -13  -8    2.70    3.40
   0  13  -8   31.00   40.70
   0  13   8    6.50   20.80
   0  13   8  -10.50   20.40
   0  13   8    4.60    4.10
   0  13  -8    1.10    4.20
   0  13  -8    2.70    5.50
   1 -13   8  -11.20   37.00
   1 -13   8    9.80    6.30
  -1 -13  -8    4.70    6.30
  -1 -13  -8    4.20    4.20
  -1  13  -8   -1.50    4.50
  -1  13  -8   -3.60    2.70
   1  13   8    0.80    8.00
  -1  13  -8   57.39   39.30
   1  13   8    9.00    6.90
   1  13   8   17.00   29.50
  -2 -13  -8   39.30   11.20
   2 -13   8  128.69   61.19
  -2 -13  -8   16.60    7.70
   2 -13   8   31.00    9.80
  -2  13  -8   34.80    9.70
   2  13   8  -88.19   76.69
   2  13   8   51.89   12.60
   2  13   8  -26.40   54.99
  -2  13  -8    4.20   56.69
  -2  13  -8   25.70    8.10
   2  13   8   43.50   10.80
  -2 -14   8    0.40    5.30
  -2 -14   8   16.60    7.10
  -2 -14   8  -70.39   42.40
   2  14  -8  -84.99   56.19
   2  14  -8   -1.40    8.00
   1 -14  -8   76.79    9.40
   1 -14  -8   86.29   16.60
  -1 -14   8   52.29   11.60
   1  14  -8   82.39   14.20
  -1  14   8   30.40   30.00
   1  14  -8   66.09   14.40
  -1  14   8   57.59   10.50
   1  14  -8   -7.10   41.00
   0 -14   8   47.30   11.30
   0 -14  -8   42.10   12.30
   0 -14   8   79.49   40.90
   0 -14  -8   59.79   11.10
   0  14  -8   37.50   11.60
   0  14   8   41.20   30.60
   0  14  -8   67.69   59.79
   0  14   8   35.10   29.60
   0  14   8   54.19   11.00
   0  14  -8   64.49   11.90
  -1 -14  -8   41.70   10.80
   1 -14   8   60.59   44.40
   1 -14   8   47.70   12.40
  -1 -14  -8   66.99   13.90
   1  14   8   57.69   12.00
  -1  14  -8    4.70   63.09
   1  14   8   86.59   54.49
   1  14   8   38.80   38.50
  -1  14  -8   51.29   11.70
   1  14   8   46.50   12.90
  -1  14  -8   31.50    9.00
   2 -14   8   -2.20    5.30
  -2 -14  -8  -11.10    6.60
  -2 -14  -8   12.00    7.20
   2 -14   8   33.50   58.49
   2  14   8    8.40    9.40
  -2  14  -8   -3.30    5.50
  -2  14  -8  -31.60   58.69
  -2  14  -8    5.10    5.50
   2  14   8    4.10    6.30
  -2 -15   8   14.40    9.80
   2 -15  -8    9.40   10.60
  -2 -15   8   21.80    9.10
   2  15  -8   15.80    7.80
   1 -15  -8    3.60    3.80
  -1 -15   8    2.50    4.80
   1 -15  -8   -0.50    5.60
  -1 -15   8  -21.90   34.70
  -1  15   8  -29.20   25.00
   1  15  -8   13.30    7.20
   0 -15  -8    4.10    5.00
   0 -15  -8    1.40    5.10
   0 -15   8   86.09   41.80
   0 -15   8   -0.10    4.30
   0  15  -8   -3.40    5.10
   0  15   8   19.00    7.50
   0  15   8   10.60   21.70
   0  15  -8  -22.40   41.60
   0  15  -8    7.60    6.10
   1 -15   8   11.60    7.10
  -1 -15  -8    7.30    6.60
  -1  15  -8   -0.40    5.80
  -1  15  -8   23.10   63.99
   1  15   8  114.49   71.49
   1  15   8    0.50    4.60
   1  15   8  -55.69   37.90
  -1  15  -8   -1.30    3.30
   1  15   8   -5.10    4.90
  -2 -15  -8   59.49   14.00
  -2 -15  -8   49.00   13.10
  -2  15  -8   58.59   17.30
   2  15   8   64.29   14.90
   2  15   8  -35.30   60.99
  -2  15  -8   80.39   12.90
   2  15   8   54.79   22.50
  -1 -16   8   82.19   51.89
   1 -16  -8   32.10    7.60
  -1 -16   8   10.50    7.80
  -1 -16   8   45.00   14.40
   1 -16  -8   34.70   11.80
  -1  16   8   83.49   53.69
   1  16  -8  -10.60   64.29
   1  16  -8   23.10    9.70
   0 -16  -8    2.60    5.20
   0 -16   8   23.80   10.50
   0 -16   8   54.79   47.30
   0 -16  -8    1.00    6.80
   0  16   8    4.90    6.80
   0  16  -8   18.10   52.69
   0  16  -8    4.90    7.50
   0  16  -8    7.80    5.70
   0  16   8    9.30   30.00
   1 -16   8   41.30   10.80
  -1 -16  -8   54.89   12.70
  -1 -16  -8   24.40   10.90
  -1  16  -8   32.60   10.00
   1  16   8  -31.00   45.70
  -1  16  -8   36.30   10.90
   1  16   8   48.30   13.90
   1  16   8   53.19   15.00
  -1  16  -8   27.80   82.09
  -1 -17   8   -2.40    6.60
  -1 -17   8   85.29   58.59
   1 -17  -8   -1.40    4.20
   1 -17  -8   25.30   10.00
   1  17  -8  -74.49   63.79
  -1  17   8  -23.00   41.20
   0 -17   8   11.50    8.20
   0 -17  -8   -7.50    7.30
   0 -17   8   29.90   48.70
   0 -17  -8   -2.90    5.00
   0  17  -8  146.59   79.39
   0  17  -8   14.50    6.50
   0  17  -8    4.20    7.40
   0  17   8    9.30    6.50
  -1 -17  -8   -0.10    5.40
   1 -17   8    0.60    9.40
  -1 -17  -8   -8.60    7.50
  -1  17  -8   -0.10    4.30
  -1  17  -8  -20.50   86.29
   1  17   8   -8.70    6.80
  -1  17  -8    9.30    6.60
   1  17   8   17.00    8.90
   0 -18   8  -28.30   51.79
   0 -18   8    8.20    8.40
   0 -18  -8    4.10    6.00
   0  18   8   -3.30    8.10
   0  18  -8   -6.50    6.40
   0  18  -8   -3.40  109.89
  -3   0   9    1.80    2.40
  -3   0   9    0.20    2.80
   2   0  -9  -18.40   14.70
  -2   0   9    2.70    2.40
  -2   0   9  -17.80   16.40
   2   0  -9    2.20    2.60
   1   0  -9   24.40   21.20
  -1   0   9   17.70   19.80
   0   0   9   25.30   22.90
   0   0  -9    0.80    2.50
   0   0   9    1.00    3.20
   0   0  -9   -9.30   15.30
  -1   0  -9   47.10   21.10
   1   0   9   14.80   18.60
   2   0   9   73.89   28.30
  -2   0  -9   31.00   27.90
  -3   0  -9  -23.00   49.99
   3   0   9  -69.79   47.40
   3   0   9    2.10    5.90
  -3   0  -9    1.20    2.70
  -3  -1   9   72.59    8.50
  -3   1   9   57.99    6.10
  -2  -1   9  233.08   16.40
   2  -1  -9  224.38   45.70
   2  -1  -9  257.17   15.80
  -2  -1   9  245.98   68.39
  -2   1   9  242.98   15.30
   2   1  -9  259.27   16.80
   2   1  -9  287.97   69.79
  -2   1   9  210.38   60.49
   1  -1  -9   97.19   35.90
   1  -1  -9   66.59   10.00
  -1  -1   9   59.19    9.80
   1   1  -9   61.69   33.30
  -1   1   9   30.30   23.60
   1   1  -9   49.10    8.80
  -1   1   9   59.99    9.50
   0  -1  -9  101.19   11.20
   0  -1  -9  141.49   43.90
   0  -1   9  112.69   56.59
   0  -1   9   86.89   10.90
   0   1   9   85.09   10.50
   0   1  -9   93.59   11.00
   0   1   9  119.59   51.69
  -1  -1  -9   18.50   15.00
   1  -1   9   25.70   19.20
   1   1   9   16.30   19.00
  -1   1  -9   27.60   15.20
   2  -1   9    6.00    4.30
   2  -1   9   38.70   29.50
  -2  -1  -9    6.00    4.20
  -2  -1  -9    0.00    3.90
  -2  -1  -9   -1.20   28.80
  -2   1  -9   -3.00    4.50
   2   1   9   34.20   27.70
  -2   1  -9    5.50    4.30
  -2   1  -9   40.50   30.30
   2   1   9    3.70    4.00
   3  -1   9   50.09   13.10
  -3  -1  -9   52.39    6.50
   3  -1   9    6.70   53.69
  -3  -1  -9  107.99   58.99
  -3  -1  -9   30.50   10.30
  -3   1  -9   61.39   13.20
  -3   1  -9   51.29    3.50
   3   1   9   41.50   11.20
  -3   1  -9  -13.20   50.39
   3   1   9   32.90   53.19
  -3  -2   9  229.88   17.30
  -3  -2   9  236.28   16.10
  -3   2   9  227.18    8.30
   2  -2  -9  599.14   67.19
   2  -2  -9  559.34   24.60
  -2  -2   9  495.85   26.60
  -2  -2   9  504.25   85.59
  -2   2   9  480.55   23.50
   2   2  -9  598.24   30.70
  -2   2   9  455.35   74.99
   2   2  -9  513.05   76.59
  -1  -2   9   -9.80   20.00
  -1  -2   9   -1.00    2.50
   1  -2  -9    3.00    3.50
   1  -2  -9   -3.70   17.90
   1   2  -9  -18.50   19.20
   1   2  -9    1.90    2.20
  -1   2   9   -2.60    2.00
  -1   2   9   -5.60   15.00
   0  -2   9   46.10    9.90
   0  -2   9   60.09   34.60
   0  -2  -9   35.40   25.80
   0  -2  -9   55.69    9.80
   0   2   9   49.00    8.90
   0   2   9   63.49   32.60
   0   2  -9   83.19   37.10
   0   2  -9   42.40    9.00
  -1  -2  -9   10.70   27.60
   1  -2   9   17.60   25.90
   1   2   9    2.40    3.40
   1   2   9   25.50   22.00
  -1   2  -9   13.70   26.70
  -2  -2  -9  277.57   56.19
   2  -2   9  186.08   58.29
   2  -2   9  166.48   16.90
  -2  -2  -9  172.88   17.50
  -2  -2  -9  150.68   14.20
   2   2   9  215.78   59.79
  -2   2  -9  124.39   13.00
  -2   2  -9  153.38   53.29
   2   2   9  163.98   17.40
  -2   2  -9  155.68   16.30
   3  -2   9   54.79   57.69
  -3  -2  -9    8.90    6.30
   3  -2   9   13.50    7.20
  -3  -2  -9   -1.50   40.50
   3   2   9   53.79   53.69
  -3   2  -9   -4.10    5.10
   3   2   9    1.70    6.40
  -3  -3   9   58.29   10.40
  -3  -3   9   44.00    8.60
   3  -3  -9   67.99   16.00
   2  -3  -9  543.25   23.40
   2  -3  -9  403.36   58.69
  -2  -3   9  514.75   27.30
  -2  -3   9  564.94  115.79
   2   3  -9  484.05   82.69
   2   3  -9  521.45   27.10
   1  -3  -9   45.20   24.80
   1  -3  -9   57.89    8.80
  -1  -3   9   59.19   10.30
  -1  -3   9   95.99   40.90
  -1   3   9   77.09   32.10
   1   3  -9   29.90   28.30
   1   3  -9   60.99   10.10
  -1   3   9   67.49   11.20
   0  -3  -9  105.59   38.50
   0  -3   9  121.79   53.49
   0  -3   9   86.89   13.00
   0  -3  -9   89.29   10.80
   0  -3  -9   75.89   14.30
   0   3   9   72.09   11.20
   0   3  -9   82.29   42.10
   0   3   9   99.59   41.40
   0   3  -9   93.19   11.30
  -1  -3  -9   59.79   12.30
  -1  -3  -9   49.10   10.20
  -1  -3  -9   84.19   32.60
   1  -3   9   32.40   36.60
   1  -3   9   49.70   10.80
   1   3   9   51.49   32.90
  -1   3  -9   83.79   29.30
   1   3   9   56.59   10.90
  -1   3  -9   61.19   10.90
  -2  -3  -9  269.07   22.70
  -2  -3  -9  285.87   20.20
   2  -3   9  235.08   20.60
  -2  -3  -9  253.77   72.79
   2  -3   9  277.17   87.09
  -2   3  -9  294.97   87.19
  -2   3  -9  251.47   21.30
   2   3   9  199.58   68.49
   2   3   9  261.27   22.10
  -2   3  -9  260.37   18.30
   3  -3   9  136.59   76.79
  -3  -3  -9   59.49   55.19
  -3  -3  -9   45.90   12.80
   3  -3   9   69.89   14.50
   3   3   9   82.79   16.30
  -3   3  -9   72.99   15.30
   3   3   9  118.29   59.59
  -3   3  -9   17.30   57.59
   3  -4  -9   29.80   11.10
  -3  -4   9   12.70    7.40
  -3  -4   9   10.10    5.60
   2  -4  -9    3.00    2.40
  -2  -4   9    0.60    4.20
   2  -4  -9    6.20    5.80
   2  -4  -9   -5.30   20.40
   2   4  -9    3.70    3.40
  -2   4   9   46.00   24.80
   2   4  -9   47.80   24.90
  -2   4   9    2.40    2.10
   1  -4  -9  672.43   79.09
   1  -4  -9  703.93   42.10
   1  -4  -9  803.82   33.70
  -1  -4   9  754.72  100.79
  -1  -4   9  713.63   35.50
   1   4  -9  755.52   97.89
  -1   4   9  762.42   32.80
   1   4  -9  827.52   36.60
  -1   4   9  684.23   82.79
   0  -4   9  835.72  108.79
   0  -4  -9  729.93   87.99
   0  -4  -9  768.42   42.60
   0  -4   9  758.12   37.40
   0  -4  -9  748.83   36.20
   0   4   9  826.32   37.00
   0   4  -9  824.42  104.69
   0   4   9  751.62   92.99
   0   4  -9  799.02   37.80
   1  -4   9  181.58   16.90
  -1  -4  -9  176.38   17.30
   1  -4   9  251.37   79.19
  -1  -4  -9  176.48   55.99
  -1  -4  -9  174.98   16.90
   1   4   9  176.28   59.79
  -1   4  -9  185.78   56.49
  -1   4  -9  177.88   16.40
   1   4   9  160.88   15.90
  -2  -4  -9  196.38   17.00
   2  -4   9  165.78   17.30
   2  -4   9  304.47   99.59
  -2  -4  -9  192.88   19.30
   2   4   9  173.38   18.30
  -2   4  -9  154.68   14.10
  -2   4  -9  179.28   64.59
  -2   4  -9  203.48   19.00
   2   4   9  269.77   54.19
   3  -4   9   82.59   15.50
  -3  -4  -9  113.49   11.40
  -3  -4  -9  100.39   17.10
   3  -4   9  186.68   85.79
  -3  -4  -9   94.99   66.29
  -3   4  -9   87.59   15.70
   3   4   9  141.09   20.80
  -3   4  -9   52.09   58.49
  -3  -5   9   10.70    6.60
  -3  -5   9   19.00    6.70
   3  -5  -9   20.90   10.20
   2  -5  -9  162.68   39.90
  -2  -5   9  183.08   16.10
   2  -5  -9  183.98   11.20
  -2  -5   9  197.38   84.39
   2  -5  -9  177.18   21.20
  -2   5   9  183.08   10.80
   2   5  -9  181.78   15.70
  -2   5   9  184.58   38.30
   2   5  -9  174.58   61.59
  -1  -5   9  981.00   45.80
   1  -5  -9 1133.09   43.40
   1  -5  -9 1115.59   55.39
   1  -5  -9  966.50   92.69
  -1  -5   9 1108.79  127.49
  -1   5   9 1091.09  106.09
   1   5  -9 1186.08   47.80
   1   5  -9 1201.88  122.09
  -1   5   9 1091.29   42.70
   0  -5   9   36.20    8.60
   0  -5  -9   41.60   24.20
   0  -5   9    3.80   29.70
   0  -5  -9   45.10    8.90
   0  -5  -9   24.50    8.30
   0   5  -9   64.39   35.60
   0   5   9   48.40    9.60
   0   5   9   55.19   22.90
   0   5  -9   29.40    7.40
   1  -5   9   68.89   33.70
   1  -5   9   31.10    8.60
  -1  -5  -9   19.10    6.50
  -1  -5  -9   24.60    7.50
  -1   5  -9  -10.70   22.70
   1   5   9   17.60    6.40
  -1   5  -9   17.20    6.60
   1   5   9   83.79   34.70
  -2  -5  -9   72.69   13.80
  -2  -5  -9   71.29   12.20
   2  -5   9  126.19   44.20
   2  -5   9   65.49   12.90
  -2  -5  -9   79.89   49.70
  -2   5  -9   76.59   53.29
   2   5   9   89.79   15.20
  -2   5  -9   68.09   12.90
   2   5   9  131.59   64.59
   3  -5   9  -80.39   64.99
  -3  -5  -9    1.30    4.10
  -3  -5  -9    5.90    5.20
   3  -5   9   -9.50    4.50
   3   5   9    5.40    5.50
  -3   5  -9   -6.60    4.70
  -3   5  -9  -36.10   57.99
   3   5   9   10.50   58.99
   3  -6  -9   -0.60    6.30
  -3  -6   9   -3.50    5.00
  -3  -6   9   -4.10    5.20
   3   6  -9   -2.40    7.20
  -2  -6   9    6.80   28.40
   2  -6  -9    9.30    3.00
  -2  -6   9   12.10    5.40
   2  -6  -9    5.80    6.60
  -2   6   9   11.30   18.60
   2   6  -9    2.20   24.30
  -2   6   9    4.50    2.20
   2   6  -9    9.10    4.50
  -1  -6   9  233.28   18.70
   1  -6  -9  208.98   21.60
   1  -6  -9  214.88   15.30
   1  -6  -9  188.18   40.50
  -1  -6   9  268.07   78.69
   1   6  -9  367.16   70.69
  -1   6   9  244.48   62.19
   1   6  -9  209.08   17.60
  -1   6   9  263.57   16.40
   0  -6   9  311.57   22.40
   0  -6  -9  305.57   25.20
   0  -6  -9  293.77   56.59
   0  -6   9  437.16   75.29
   0  -6  -9  299.17   21.00
   0   6  -9  478.75   94.19
   0   6  -9  330.97   22.50
   0   6   9  335.47   21.70
   0   6   9  320.67   58.99
  -1  -6  -9  106.49   34.30
  -1  -6  -9  109.19   15.90
   1  -6   9   58.89   48.30
   1  -6   9  103.99   12.80
   1   6   9   89.89   42.60
  -1   6  -9  105.09   57.19
   1   6   9   94.49   14.60
  -1   6  -9   97.89   12.40
  -2  -6  -9  689.13   40.10
   2  -6   9  910.91  109.89
  -2  -6  -9  695.63   36.60
  -2  -6  -9  800.62  105.29
   2  -6   9  689.03   38.80
  -2   6  -9  704.33  112.19
   2   6   9  714.43   99.99
  -2   6  -9  657.13   37.80
   2   6   9  635.64   38.80
  -2   6  -9  694.53   32.20
   3  -6   9  109.19   17.10
  -3  -6  -9   61.39   13.30
  -3  -6  -9   65.69   11.30
   3   6   9   80.09   17.00
  -3   6  -9   71.79   14.30
  -3   6  -9    4.60   65.49
   3   6   9   93.49  109.99
  -3  -7   9    3.00    6.20
   3  -7  -9   -6.20    8.90
  -3  -7   9  -10.20    8.50
   2  -7  -9    5.20    2.30
  -2  -7   9  -29.30   24.80
   2  -7  -9   14.50    7.30
  -2  -7   9    0.90    3.40
  -2   7   9    7.10    3.50
   2   7  -9    7.30    4.90
  -2   7   9   29.60   18.50
   1  -7  -9  331.87   19.50
  -1  -7   9  302.27   22.40
   1  -7  -9  359.96   28.50
  -1  -7   9  272.57   80.19
   1   7  -9  284.77   78.49
  -1   7   9  285.97   56.79
  -1   7   9  338.67   19.50
   1   7  -9  328.77   22.50
   0  -7  -9 1452.25   64.49
   0  -7  -9 1456.35   56.89
   0  -7   9 1620.74  157.18
   0  -7  -9 1345.17  117.89
   0  -7   9 1482.55   59.79
   0   7   9 1292.67  124.69
   0   7  -9 1236.58  188.38
   0   7   9 1436.66   56.49
   0   7  -9 1421.36   58.09
  -1  -7  -9 1060.09   48.00
  -1  -7  -9  881.91  105.59
   1  -7   9 1047.10  132.59
   1  -7   9  932.71   45.70
  -1  -7  -9  987.10   48.20
  -1   7  -9  940.81   45.30
   1   7   9  840.32  110.89
   1   7   9  942.51   45.60
  -1   7  -9  978.10  126.19
  -2  -7  -9  109.59   17.20
  -2  -7  -9  108.69   13.40
   2  -7   9   74.49   58.99
  -2  -7  -9  115.59   58.29
   2  -7   9   99.69   16.50
  -2   7  -9   87.89   10.70
  -2   7  -9   62.09   46.10
  -2   7  -9   83.49   13.90
   2   7   9  117.89   42.90
   2   7   9   90.19   15.90
  -3  -7  -9   12.70    8.00
   3  -7   9  -38.30   75.39
   3  -7   9   16.60   13.30
   3   7   9   -6.20   35.00
   3   7   9   17.40   11.30
  -3   7  -9  -68.59   87.39
  -3   7  -9   25.20    9.40
   3   7   9   53.59   65.09
  -3  -8   9    9.90    7.20
  -3  -8   9    1.70    6.70
   3  -8  -9   23.70   10.90
   3   8  -9    4.10    7.90
   2  -8  -9   -6.40    3.80
  -2  -8   9   13.80    7.10
   2  -8  -9    8.70    3.00
  -2  -8   9   70.29   34.50
   2   8  -9    5.00    6.30
   2   8  -9    3.70   31.50
  -2   8   9   -8.20    8.50
  -2   8   9   29.90   16.20
   1  -8  -9   23.10    9.20
  -1  -8   9   21.10    6.50
   1  -8  -9   14.90    4.80
  -1  -8   9   48.40   34.70
   1  -8  -9   53.09   26.30
   1   8  -9   12.80    6.80
  -1   8   9   26.00    5.90
  -1   8   9   -8.70   18.60
   1   8  -9   16.60   32.30
   0  -8  -9   63.09   10.80
   0  -8   9   70.89   41.70
   0  -8   9   63.69   11.90
   0  -8  -9   69.69   35.10
   0  -8  -9   65.19   12.90
   0   8  -9   66.69   11.70
   0   8   9   27.40   29.80
   0   8   9   58.19   10.50
   0   8  -9   96.09   53.99
  -1  -8  -9  136.29   15.70
   1  -8   9  152.78   16.40
  -1  -8  -9  154.48   16.70
  -1  -8  -9  131.19   47.80
   1  -8   9  156.48   63.89
   1   8   9  156.38   16.40
  -1   8  -9  154.68   15.90
  -1   8  -9  143.49   59.99
  -1   8  -9  149.99   16.10
   1   8   9  163.68   57.79
   2  -8   9  480.45  100.79
  -2  -8  -9  439.96   28.70
   2  -8   9  420.66   29.60
  -2  -8  -9  395.86   30.00
  -2   8  -9  434.56   24.30
   2   8   9  520.25   82.99
  -2   8  -9  417.06   28.90
  -2   8  -9  422.96  111.49
   2   8   9  406.56   30.50
  -3  -8  -9   38.90    9.30
   3   8   9   64.09   64.59
   3   8   9  -69.29   45.10
   2  -9  -9   33.80   10.00
  -2  -9   9   20.30    7.30
  -2  -9   9   25.10    9.50
   2  -9  -9   16.30    3.30
  -2  -9   9  -12.90   34.10
   2   9  -9  -32.70   24.50
  -2   9   9   14.20   12.30
   2   9  -9    7.80    5.40
  -2   9   9    2.20   16.10
  -1  -9   9  449.66   79.69
  -1  -9   9  338.27   24.90
   1  -9  -9  354.46   20.80
   1  -9  -9  382.66   30.40
   1   9  -9  234.58   76.99
  -1   9   9  365.76   21.30
   1   9  -9  406.06   26.10
   1   9  -9  359.86   28.30
  -1   9   9  421.46   88.09
   0  -9   9  389.66   78.19
   0  -9  -9  267.77   23.60
   0  -9   9  232.08   20.00
   0  -9  -9  144.79   46.00
   0  -9  -9  268.17   20.10
   0   9   9  219.58   18.10
   0   9  -9  226.08   21.50
   0   9  -9  288.47   80.09
   0   9   9  239.58   67.79
   0   9  -9  235.38   19.60
   1  -9   9  173.28   17.80
  -1  -9  -9  178.78   19.00
  -1  -9  -9  159.58   17.10
   1  -9   9  186.48   72.79
  -1   9  -9  143.39   15.80
  -1   9  -9  169.28   16.80
   1   9   9  150.88   61.49
  -1   9  -9  230.68   80.49
   1   9   9  144.79   15.90
   2  -9   9  176.78   18.80
  -2  -9  -9  183.58   18.40
   2  -9   9  338.27  101.59
  -2  -9  -9  203.28   20.40
   2   9   9  107.59   57.59
   2   9   9  228.38   66.69
  -2   9  -9  188.38   18.90
  -2   9  -9  183.68   84.99
  -2   9  -9  182.58   15.70
   2   9   9  162.08   19.10
  -2 -10   9   54.69   48.90
  -2 -10   9   -2.60    7.90
  -2  10   9    4.10   11.80
   2  10  -9    0.70    4.40
   2  10  -9   92.09   37.00
  -1 -10   9  528.25  101.89
   1 -10  -9  566.74   27.50
  -1 -10   9  548.05   33.10
   1 -10  -9  531.55   36.80
   1  10  -9  495.45   33.50
  -1  10   9  567.54   28.20
  -1  10   9  523.15   63.69
   1  10  -9  555.74   36.50
   1  10  -9  550.54  126.59
  -1  10   9  559.44   75.39
   0 -10   9  195.98   19.10
   0 -10   9  272.57   77.49
   0 -10  -9  206.28   17.60
   0 -10  -9  212.38   21.40
   0  10  -9  178.58   19.40
   0  10  -9  342.57   67.09
   0  10   9  213.48   18.00
   0  10  -9  186.18   17.60
   0  10   9  218.58   64.29
  -1 -10  -9    8.30    6.80
   1 -10   9   16.70   42.00
  -1 -10  -9    3.10    4.50
  -1  10  -9   16.20    6.30
  -1  10  -9  -29.50   28.90
   1  10   9   18.10    8.20
   1  10   9   69.49   42.90
  -2 -10  -9  350.96   28.90
  -2 -10  -9  323.77   25.80
   2 -10   9  401.96   40.90
   2  10   9  225.38   74.59
  -2  10  -9  311.87   94.39
   2  10   9  376.66  100.49
  -2  10  -9  314.07   25.50
   2  10   9  295.17   27.30
  -2  10  -9  357.76   22.40
   2 -11  -9   81.59   17.10
  -2 -11   9   59.69   13.10
  -2 -11   9   86.49   17.20
   2 -11  -9   60.29    4.00
  -2 -11   9   82.99   42.80
   2  11  -9   33.30   12.40
   2  11  -9    0.40   26.40
  -1 -11   9  153.08   17.30
  -1 -11   9  246.38   87.69
   1 -11  -9  177.08   20.80
   1 -11  -9  190.18   14.60
  -1  11   9  156.18   48.90
   1  11  -9  198.28   21.60
   1  11  -9  265.87   71.69
   1  11  -9  207.58   18.60
  -1  11   9  158.28   44.40
  -1  11   9  166.08   14.40
   0 -11   9  112.29   16.80
   0 -11  -9  112.59   13.00
   0 -11  -9   87.69   15.80
   0 -11   9  188.38   55.39
   0  11  -9  143.29   17.10
   0  11  -9   66.09   55.29
   0  11   9   92.59   33.30
   0  11   9  100.19   14.80
   0  11  -9  100.99   15.70
   0  11   9  106.89   49.50
  -1 -11  -9  354.56   27.90
  -1 -11  -9  355.36   27.10
   1 -11   9  316.87   25.40
   1  11   9  394.36  100.29
   1  11   9  381.16   89.49
  -1  11  -9  383.26  107.69
  -1  11  -9  350.66   25.60
  -1  11  -9  351.06   25.70
  -2 -11  -9   61.69   12.40
   2 -11   9   90.49   85.79
   2 -11   9   78.39   14.90
  -2 -11  -9   67.69   15.60
  -2  11  -9   76.09   15.50
   2  11   9   40.00   61.89
   2  11   9  110.99   19.30
   2  11   9   28.40   47.10
  -2  11  -9   91.49   13.00
  -2  11  -9   12.90   59.89
   2 -12  -9  135.49   22.30
   2 -12  -9   84.89    3.60
  -2 -12   9  113.59   19.70
   2 -12  -9  120.99    4.50
  -2 -12   9  206.08  110.09
  -2 -12   9  144.49   17.20
   2  12  -9  110.99   19.50
   1 -12  -9   12.40    6.30
   1 -12  -9   10.20    4.70
  -1 -12   9    8.90    5.90
  -1  12   9    7.90    4.30
   1  12  -9    2.70    4.40
  -1  12   9  -19.80   19.20
   1  12  -9    8.60    5.20
   1  12  -9   -9.40   44.20
   0 -12  -9   63.29   14.30
   0 -12   9   95.29   15.60
   0 -12  -9   85.69   13.90
   0 -12   9   99.89   38.10
   0  12  -9  114.49   14.20
   0  12   9   46.00   27.20
   0  12  -9   82.89   15.20
   0  12   9   67.49   12.60
   0  12   9   86.89   37.90
   0  12  -9  143.69   59.59
  -1 -12  -9   17.70    8.10
   1 -12   9   32.30   36.30
  -1 -12  -9   -0.30    5.10
   1  12   9   -8.20   28.80
  -1  12  -9  109.89   45.50
   1  12   9    2.60    5.70
   1  12   9   21.20   33.10
  -2 -12  -9   -2.80    4.40
   2 -12   9   -4.90    4.20
   2 -12   9  132.29   63.49
  -2 -12  -9   -8.00    3.80
  -2  12  -9   -2.60    4.50
   2  12   9   -6.10    8.20
  -2  12  -9  -14.60   51.29
   2  12   9   -7.60   54.09
  -2  12  -9    1.50    6.40
  -2 -13   9  422.06   31.60
  -2 -13   9  481.65   37.70
   2  13  -9  489.95   37.60
   1 -13  -9   28.00    9.80
  -1 -13   9   15.30   54.49
   1 -13  -9   38.90    7.40
  -1 -13   9   31.90    9.60
   1  13  -9   -6.60   39.20
  -1  13   9   28.90    7.90
  -1  13   9   41.10   23.10
   1  13  -9   20.90   10.20
   1  13  -9   28.10    8.70
   0 -13  -9    4.40    4.40
   0 -13  -9   -7.50    4.90
   0  13  -9  -51.19   36.00
   0  13  -9    6.90    4.50
   0  13   9   30.80   27.20
   0  13  -9   -5.90    5.60
   0  13   9  -30.00   23.80
   0  13   9   -4.10    4.00
   1 -13   9    8.00    5.50
   1 -13   9  -25.80   38.50
  -1 -13  -9   12.90    6.40
  -1 -13  -9   21.10    7.60
   1  13   9    3.30    6.40
  -1  13  -9  -23.00   46.30
   1  13   9   55.49   40.70
  -1  13  -9    0.90    6.30
   1  13   9  -24.30   42.50
  -1  13  -9   28.40    8.90
  -2 -13  -9   34.90   12.60
   2 -13   9  123.09   80.79
   2 -13   9   26.40   10.60
  -2 -13  -9   28.10    9.70
  -2  13  -9   27.10    7.60
  -2  13  -9    2.30    6.60
   2  13   9   34.40   12.10
  -2 -14   9   65.49   13.30
   2 -14  -9   66.29   15.90
   1 -14  -9    1.30    3.10
  -1 -14   9  -29.50   37.80
   1 -14  -9   -3.20    7.30
  -1 -14   9   14.00    8.40
   1  14  -9  -48.20   46.80
  -1  14   9    8.10    5.70
   1  14  -9   -5.40    4.00
  -1  14   9   38.50   23.70
   1  14  -9    8.80    7.40
   0 -14   9  212.28   21.40
   0 -14  -9  275.87   21.80
   0 -14  -9  199.78   23.00
   0  14  -9  206.98   22.90
   0  14  -9  209.28   21.00
   0  14   9  245.38   22.10
   0  14  -9  261.47   94.39
   1 -14   9   33.60   50.29
  -1 -14  -9  -10.00    6.10
   1 -14   9   -6.70    6.10
  -1 -14  -9  -10.50    4.80
   1  14   9  -41.80   43.20
  -1  14  -9  -18.50   51.89
   1  14   9    5.90    7.20
  -1  14  -9    5.40    5.60
  -1  14  -9    6.40    8.70
  -1 -15   9   71.19   61.89
  -1  15   9   36.00   56.29
   1  15  -9  -30.90   43.60
   0 -15  -9   12.40    5.50
   0 -15   9    5.80    7.00
   0 -15   9  -40.20   42.40
   0 -15  -9   11.30    7.60
   0  15  -9    9.20    6.60
   0  15  -9    8.40    7.40
   0  15   9    8.90    7.30
   0  15  -9  -33.10   45.90
   0  15   9  -37.30   31.70
  -1 -15  -9   22.80   12.10
  -1 -15  -9   63.49   13.60
   1 -15   9  119.99   53.09
   1 -15   9   31.10    9.30
   1  15   9  -33.30   48.00
  -1  15  -9   60.59   13.50
  -1  15  -9   64.29   13.00
   1  15   9   68.99   14.70
  -1  15  -9  -52.49   79.69
   1 -16  -9   36.90    8.30
   1 -16  -9   34.60   12.30
  -1 -16   9   47.20   12.00
  -1 -16   9   43.40   12.70
  -1 -16   9  115.39   58.29
  -1  16   9   31.90   39.00
   1  16  -9   57.19   13.80
   1  16  -9  -32.20   66.29
   0 -16  -9   -0.60    5.50
   0 -16  -9    6.20    8.30
   0 -16   9  -17.40    6.40
   0  16   9    1.20    5.90
   0  16  -9    0.00    5.00
   0  16   9   -6.80   41.00
   0  16  -9  -26.40   76.19
   0  16  -9    6.90    8.60
   1 -16   9  -28.60   55.89
  -1 -16  -9   14.10    9.30
  -1 -16  -9   15.50    9.50
   1  16   9   27.10   12.10
  -1  16  -9    2.30    5.50
  -1  16  -9   26.70    9.90
   0 -17   9  119.79   72.39
   0 -17  -9   15.30    6.40
   0 -17   9    8.20    9.20
   0  17   9    5.00    9.20
   0  17  -9   -7.90    6.10
   0  17  -9 -105.19   92.19
   0  17  -9   13.20    8.90
  -3   0  10  393.96   20.90
  -3   0  10  381.46   19.90
   2   0 -10  152.48   48.40
   2   0 -10  160.98   13.30
  -2   0  10  153.08   13.30
  -2   0  10  158.98   45.80
   1   0 -10  146.19   49.30
  -1   0  10  142.59   54.19
  -1   0  10  142.79   13.50
   1   0 -10  136.09   13.40
   0   0 -10    5.90    3.80
   0   0  10   11.60    5.10
   0   0 -10   11.80   23.30
   0   0  10   37.30   18.80
  -1   0 -10  143.29   15.50
  -1   0 -10  258.27   69.09
   1   0  10  137.79   16.00
   1   0  10  190.98   92.59
  -1   0 -10  146.69   15.90
  -2   0 -10   35.10   35.30
  -3   0 -10    4.70    6.70
   3   0  10   11.50    7.80
  -3   0 -10   -4.20    2.90
  -3   0 -10  -29.70   48.00
   3   0  10  -47.80   51.29
  -3  -1  10   93.29   11.00
  -3   1  10  104.89    8.50
  -3   1  10  104.89    9.40
  -2  -1  10   83.79   32.00
   2  -1 -10   23.70   34.10
   2  -1 -10   34.10    6.90
  -2  -1  10   31.00    7.10
  -2   1  10   29.70    6.30
  -2   1  10   52.99   32.10
   2   1 -10   33.10    9.00
   2   1 -10    2.80   28.30
   1  -1 -10  161.78   14.30
  -1  -1  10  143.69   14.00
  -1  -1  10  247.18   70.89
   1  -1 -10  122.99   35.30
  -1   1  10  155.68   14.00
  -1   1  10  205.58   65.19
   1   1 -10  220.58   57.29
   1   1 -10  158.78   14.50
   0  -1 -10   64.89   36.90
   0  -1  10  158.88   49.40
   0  -1 -10   81.59   12.80
   0  -1  10   85.79   13.30
   0   1  10   89.39   13.30
   0   1  10  105.99   46.30
   0   1 -10  139.19   47.70
   0   1 -10   89.39   13.40
   1  -1  10  222.78   76.19
   1  -1  10  266.37   21.40
  -1  -1 -10  296.17   78.09
  -1  -1 -10  270.47   21.50
  -1  -1 -10  234.28   21.20
  -1   1 -10  340.47   61.09
   1   1  10  367.96   69.79
  -2  -1 -10  -29.20   32.60
  -2  -1 -10    0.00    3.30
   2  -1  10   45.60   28.10
  -2  -1 -10    0.40    2.80
  -2   1 -10   -5.10   34.30
  -2   1 -10    2.50    3.50
   2   1  10    6.40    4.20
  -2   1 -10   -0.70    3.30
  -3  -1 -10   -8.80    5.00
   3  -1  10    7.30    8.20
   3  -1  10   44.20   69.79
  -3  -1 -10  -49.90   50.09
  -3  -1 -10   -2.90    3.40
  -3   1 -10   -1.20    3.80
  -3   1 -10   -5.60    4.40
   3   1  10  133.29   61.89
  -3   1 -10  -17.90   66.29
   3   1  10   -2.00    6.80
  -3  -2  10   89.99   11.00
  -3  -2  10   88.69   10.40
  -3   2  10   79.19    5.40
  -3   2  10   85.89    5.80
   2  -2 -10   33.90   27.80
  -2  -2  10   -4.50   22.60
  -2  -2  10    2.10    3.80
   2  -2 -10    0.90    2.30
  -2   2  10  -28.10   16.90
   2   2 -10    3.40    3.60
  -2   2  10    2.30    2.60
   2   2 -10   17.50   27.10
  -1  -2  10   76.89   11.70
   1  -2 -10   84.59    9.90
  -1  -2  10   47.60   42.20
   1  -2 -10   21.40   25.30
  -1   2  10   82.09   10.00
  -1   2  10   95.39   47.90
   1   2 -10   71.69   42.10
   1   2 -10   64.59   10.90
   0  -2 -10    4.50   21.00
   0  -2  10  -23.40   25.00
   0  -2  10    4.50    3.50
   0  -2 -10   -5.50    3.00
   0  -2 -10    7.50    5.50
   0   2 -10  -11.50   23.30
   0   2  10    2.80    3.60
   0   2 -10    1.60    3.90
   0   2  10   -6.80   21.90
   1  -2  10  -14.80   19.40
   1  -2  10    9.20    5.30
  -1  -2 -10  -20.40   22.90
  -1  -2 -10   -2.00    4.50
  -1  -2 -10   -1.00    3.40
   1   2  10   40.80   28.90
  -1   2 -10    1.90    4.50
   1   2  10    4.70    3.90
  -1   2 -10   26.60   29.00
   2  -2  10   56.09   39.70
   2  -2  10   18.60    7.00
  -2  -2 -10  -16.80   25.80
  -2  -2 -10   12.10    7.70
  -2  -2 -10   21.20    6.70
   2   2  10   17.50    8.30
  -2   2 -10   22.50   41.70
  -2   2 -10   14.80    5.60
   2   2  10   51.09   39.70
  -2   2 -10   20.90    8.10
  -3  -2 -10  152.88   18.50
   3  -2  10  247.38   93.39
  -3  -2 -10   53.69   75.49
   3  -2  10  184.98   34.40
  -3  -2 -10  149.79   12.50
  -3   2 -10  150.38   18.90
   3   2  10  161.58   19.90
  -3   2 -10   57.49   84.99
  -3  -3  10  147.79   13.80
  -3  -3  10  132.59   13.90
   3  -3 -10  190.38   40.70
   2  -3 -10   63.79    7.60
  -2  -3  10   81.19   41.80
  -2  -3  10   59.69   10.40
   2  -3 -10   77.29   33.40
   2   3 -10   63.99   11.30
  -2   3  10   72.79   11.10
  -2   3  10   51.89   22.70
   2   3 -10  110.59   48.80
   1  -3 -10   -6.70   19.20
  -1  -3  10    4.90    4.60
   1  -3 -10   -0.10    2.70
  -1  -3  10   44.00   27.60
  -1   3  10    3.20    2.50
   1   3 -10   14.00   22.50
  -1   3  10   30.30   25.30
   1   3 -10    5.60    4.20
   0  -3 -10  187.28   16.30
   0  -3 -10  166.28   18.50
   0  -3  10  210.18   69.39
   0  -3  10  147.59   15.30
   0  -3 -10  116.39   45.60
   0   3 -10  117.89   51.79
   0   3  10  158.58   15.00
   0   3  10  202.08   64.39
   0   3 -10  178.68   16.20
  -1  -3 -10   50.39   16.20
   1  -3  10   80.59   13.60
   1  -3  10  102.89   62.09
  -1  -3 -10   35.00   34.10
  -1  -3 -10   66.99   12.30
   1   3  10  136.59   49.40
  -1   3 -10   59.19   51.59
   1   3  10   63.99   12.30
  -1   3 -10   61.79   12.30
  -2  -3 -10   21.70    6.60
   2  -3  10   32.20    9.80
   2  -3  10  154.58   59.19
  -2  -3 -10   19.30   22.00
  -2  -3 -10   22.60    8.70
  -2   3 -10   19.30    6.00
  -2   3 -10  -27.90   30.20
  -2   3 -10    7.70    5.60
   2   3  10  106.69   45.20
   2   3  10   24.50    9.20
  -3  -3 -10    5.20   89.59
   3  -3  10  247.58   93.29
  -3  -3 -10   69.39   14.40
  -3  -3 -10   84.49    9.90
   3   3  10   19.80   64.89
  -3   3 -10   91.39   18.70
  -3   3 -10   58.49   93.59
   3   3  10   97.29   27.10
  -3  -4  10    4.60    5.00
  -3  -4  10   -3.40    4.50
  -2  -4  10  432.86   84.89
  -2  -4  10  411.56   26.20
   2  -4 -10  436.66   21.60
   2  -4 -10  461.25   35.40
   2   4 -10  438.36   26.10
  -2   4  10  466.85   30.00
  -2   4  10  452.45   62.49
   2   4 -10  495.05   89.69
   1  -4 -10  164.78   15.60
   1  -4 -10  169.28   20.40
  -1  -4  10  157.48   15.20
  -1  -4  10  165.08   59.29
   1  -4 -10  201.28   55.09
  -1   4  10  138.59   49.80
  -1   4  10  190.38   14.90
   1   4 -10  131.89   50.69
   1   4 -10  178.38   15.90
   0  -4  10   57.29   11.20
   0  -4 -10   65.39   43.80
   0  -4 -10   39.30   11.30
   0  -4 -10   42.40    9.40
   0  -4  10   74.69   40.80
   0   4 -10   36.90    9.10
   0   4  10   40.00   30.60
   0   4  10   59.89   10.80
   0   4 -10   57.29   32.60
   1  -4  10    0.10    4.30
   1  -4  10   47.40   38.80
  -1  -4 -10    1.80    4.70
  -1  -4 -10  -17.40   15.30
  -1  -4 -10   -3.00    3.50
  -1   4 -10   -3.10    2.40
   1   4  10    5.90    3.60
  -1   4 -10    7.60   28.50
   1   4  10   31.40   27.20
  -2  -4 -10    1.80    3.60
  -2  -4 -10   -6.60    3.80
   2  -4  10    0.00    5.40
   2  -4  10   64.49   36.40
  -2   4 -10   -8.10   39.80
  -2   4 -10   -4.00    5.80
   2   4  10    5.50   35.40
   2   4  10    4.00    5.00
  -2   4 -10    2.10    3.90
  -3  -4 -10   32.70   12.40
  -3  -4 -10   30.30    7.90
  -3  -4 -10   18.60   65.49
   3   4  10  121.49   71.69
   3  -5 -10   14.20    9.90
  -3  -5  10   12.30    7.60
  -3  -5  10    1.90    5.20
  -2  -5  10  170.08   60.59
  -2  -5  10  206.58   17.70
   2  -5 -10  221.98   13.70
   2  -5 -10  284.77   27.50
  -2   5  10  234.98   13.80
   2   5 -10  210.08   17.80
  -2   5  10  304.17   42.80
   2   5 -10  107.09   53.69
  -1  -5  10   74.09   12.50
   1  -5 -10   94.69   10.40
   1  -5 -10   60.39   14.50
   1  -5 -10   96.19   38.10
  -1  -5  10   60.19   37.90
   1   5 -10   86.79   13.20
  -1   5  10   69.19   36.30
   1   5 -10   79.69   44.30
   0  -5 -10   14.90    6.90
   0  -5  10   26.70   34.40
   0  -5  10    5.70    5.50
   0  -5 -10   13.30    5.10
   0   5  10   27.30   30.50
   0   5 -10   47.30   31.30
   0   5  10   11.40    5.10
   0   5 -10   12.10    5.60
  -1  -5 -10  259.87   73.49
  -1  -5 -10  216.18   20.10
   1  -5  10  259.97   76.09
   1  -5  10  211.48   19.70
  -1  -5 -10  210.38   20.70
   1   5  10  232.98   20.40
  -1   5 -10  381.56   69.69
   1   5  10  317.47   57.29
  -1   5 -10  250.37   21.20
  -2  -5 -10    7.10    4.80
  -2  -5 -10   -2.30    3.70
   2  -5  10   56.09   45.20
  -2  -5 -10   12.00   30.70
  -2   5 -10   -0.10    3.30
   2   5  10   -3.60    4.90
   2   5  10  -16.80   30.00
  -2   5 -10   40.80   36.40
   3  -6 -10   42.70   13.60
   2  -6 -10  136.49   22.60
  -2  -6  10  150.88   15.00
  -2  -6  10  192.08   73.39
   2  -6 -10  164.58   11.00
   2   6 -10  159.18   15.60
  -2   6  10  146.99   10.30
  -2   6  10  106.79   56.69
   1  -6 -10   93.59   10.30
  -1  -6  10  109.29   62.19
   1  -6 -10   81.39   15.80
  -1  -6  10  118.59   13.40
   1   6 -10  102.99   12.70
  -1   6  10   99.99   10.80
  -1   6  10  133.29   68.09
   0  -6 -10  752.22   37.20
   0  -6 -10  724.03   43.40
   0  -6  10  765.32  116.39
   0  -6 -10  766.62   93.79
   0   6 -10  702.73   37.60
   0   6 -10  767.72  109.79
   0   6  10  723.33   36.50
   0   6  10  699.93   96.49
  -1  -6 -10   36.80   10.00
  -1  -6 -10   39.70   10.00
  -1  -6 -10   66.19   33.00
   1  -6  10   64.69   47.40
   1  -6  10   33.50    9.30
  -1   6 -10   25.90    7.80
   1   6  10   48.20   11.50
  -1   6 -10    1.60   29.90
   1   6  10   85.89   38.40
   2  -6  10   36.00    9.30
  -2  -6 -10   41.40    9.90
  -2  -6 -10   44.60   10.30
   2  -6  10  116.19   59.69
  -2  -6 -10  -36.20   39.20
  -2   6 -10   35.10    9.70
   2   6  10   56.09   13.00
  -2   6 -10   23.50    7.10
  -2   6 -10   26.00   50.79
   2   6  10   78.19   41.70
   2  -7 -10   21.60   10.20
  -2  -7  10   12.60    5.60
  -2  -7  10  -32.00   23.10
   2  -7 -10   10.80    3.00
   2   7 -10   -0.20    5.10
  -2   7  10    9.30    3.00
  -1  -7  10   63.99   12.30
   1  -7 -10   23.00   20.40
  -1  -7  10    1.90   35.90
   1  -7 -10   49.70   13.30
   1  -7 -10   71.79   10.60
   1   7 -10   63.69   11.80
   1   7 -10   46.80   30.30
  -1   7  10   51.49    9.10
  -1   7  10   17.10   26.60
   0  -7  10   96.89   15.20
   0  -7 -10   71.99   15.00
   0  -7  10   59.39   51.79
   0  -7 -10   66.89   29.00
   0  -7 -10   96.99   12.00
   0   7  10   74.09   45.70
   0   7 -10   76.89   13.40
   0   7  10   87.39   13.40
   0   7 -10  156.88   49.90
  -1  -7 -10   55.99   12.80
  -1  -7 -10   41.00   31.70
   1  -7  10   99.29   48.00
   1  -7  10   42.70   10.50
  -1  -7 -10   48.10   10.90
   1   7  10   34.60   32.00
  -1   7 -10   48.50   11.10
  -1   7 -10   57.49   44.40
   2  -7  10   11.00    5.10
  -2  -7 -10   20.50    7.00
  -2  -7 -10   21.40   44.90
  -2  -7 -10    6.20    5.20
   2   7  10   50.69   51.29
  -2   7 -10  -15.40   40.20
  -2   7 -10   17.00    7.50
   2   7  10   22.00    8.50
  -2   7 -10   20.40    6.40
   2  -8 -10   17.60    3.70
  -2  -8  10    7.50    6.00
   2  -8 -10   22.20   10.00
  -2   8  10   12.80    3.00
   2   8 -10    2.80    6.30
  -1  -8  10   10.40   35.40
   1  -8 -10   39.60   23.80
   1  -8 -10   -4.50    5.50
  -1  -8  10   18.20    7.10
   1  -8 -10    3.50    3.40
   1   8 -10  -10.10   24.40
  -1   8  10   12.50    4.20
   1   8 -10    0.50    4.70
  -1   8  10  -11.80   18.40
   0  -8  10  272.87   22.40
   0  -8 -10  280.07   21.10
   0  -8  10  256.07   91.99
   0  -8 -10  286.97   25.80
   0  -8 -10  237.68   61.39
   0   8  10  280.97   74.69
   0   8 -10  279.47   22.20
   0   8  10  294.07   21.70
   0   8 -10  306.77   91.69
  -1  -8 -10  295.87   25.10
  -1  -8 -10  246.38   65.49
  -1  -8 -10  262.67   23.30
   1  -8  10  255.17   22.30
   1  -8  10  364.66  104.69
  -1   8 -10  282.57   23.50
  -1   8 -10  280.37   27.50
  -1   8 -10  294.87   82.89
   1   8  10  307.47   28.50
   1   8  10  358.96   74.99
  -2  -8 -10   49.10   13.30
   2  -8  10   34.10   14.40
  -2  -8 -10   59.99   12.20
   2  -8  10   65.89   61.89
   2   8  10   40.20   45.60
  -2   8 -10   41.40   10.00
   2   8  10   27.10    9.80
  -2   8 -10   26.00    8.00
  -2   8 -10  -41.70   47.90
   2  -9 -10   14.60    4.80
  -2  -9  10   16.20    8.50
   2  -9 -10   33.00   11.00
  -2   9  10    2.80   16.90
   2   9 -10   14.90    7.60
  -1  -9  10  101.99   56.49
   1  -9 -10   16.30    5.20
   1  -9 -10   14.90    7.80
  -1  -9  10    9.20    4.50
   1   9 -10   13.50    5.50
   1   9 -10  -49.60   30.30
  -1   9  10   16.70    5.70
  -1   9  10   34.70   24.40
   0  -9 -10   56.09   27.80
   0  -9 -10   28.00   10.40
   0  -9 -10    9.80    5.20
   0  -9  10   11.00   37.10
   0  -9  10   27.20    8.00
   0   9  10    0.60   24.00
   0   9 -10   20.80    7.20
   0   9  10   27.80    7.80
   0   9 -10   84.69   35.50
  -1  -9 -10    8.30   30.40
   1  -9  10   13.70    6.70
  -1  -9 -10   22.00    8.50
  -1   9 -10   29.60    8.30
  -1   9 -10   44.00   43.40
   1   9  10   20.80    6.70
   1   9  10   29.30   31.60
  -1   9 -10   11.50    6.10
  -2  -9 -10   46.60   11.50
   2  -9  10  106.19   72.39
  -2  -9 -10   28.00    8.20
   2  -9  10   44.80   10.60
   2   9  10   20.10   36.80
   2   9  10   34.90   11.50
  -2   9 -10   34.90   10.70
  -2   9 -10   41.10    9.30
   2 -10 -10   43.90   20.30
   2 -10 -10   74.59    7.90
  -2 -10  10   88.69   14.80
  -2 -10  10  125.29   20.70
  -2  10  10   56.89   23.30
   2  10 -10   81.99   17.80
  -1 -10  10   14.50   32.00
   1 -10 -10   -6.70    5.80
   1 -10 -10   -0.90    2.80
  -1 -10  10    1.40    5.50
  -1  10  10    3.70    3.80
   1  10 -10   -1.00    4.60
   1  10 -10   -1.30    3.70
   1  10 -10  -29.20   23.30
   0 -10 -10   16.40    6.20
   0 -10 -10   10.10    7.50
   0 -10  10   21.00    8.70
   0  10 -10   14.30    7.90
   0  10  10   19.80    6.80
   0  10  10   -1.30   29.20
   0  10 -10   -1.30   39.60
   0  10 -10   -2.30    5.50
   1 -10  10  147.09   46.50
   1 -10  10   55.89   13.30
  -1 -10 -10   73.19   14.70
  -1 -10 -10   39.60   10.10
  -1  10 -10   64.39   49.99
   1  10  10   69.69   13.60
   1  10  10  194.78   72.69
  -1  10 -10   52.39   11.40
  -1  10 -10   54.89   12.20
  -2 -10 -10   39.80   11.10
   2 -10  10   91.99   67.19
   2 -10  10   44.30   11.30
  -2 -10 -10   19.60   10.80
   2  10  10   31.70   51.69
  -2  10 -10   36.20    8.50
  -2  10 -10   -1.40   64.09
   2  10  10   32.90   48.30
   2  10  10   37.30   11.10
  -2  10 -10   31.70    8.60
   2 -11 -10    3.80    2.40
   2 -11 -10   -5.30    7.50
  -2 -11  10    9.20    9.20
  -2 -11  10   13.40    8.30
  -2  11  10   -7.40   18.00
   2  11 -10   -2.40    6.00
   1 -11 -10    1.60    3.50
  -1 -11  10  -19.30   36.00
   1 -11 -10    0.20    6.90
  -1 -11  10   -1.00    5.40
   1  11 -10    4.40    5.90
   1  11 -10   -5.60   35.70
  -1  11  10    1.30    3.30
   1  11 -10    3.50    5.60
  -1  11  10  -14.30   15.70
   0 -11  10   -4.50    5.60
   0 -11 -10    4.80    5.00
   0 -11  10   37.90   47.20
   0 -11 -10   -5.80    4.40
   0  11 -10   -4.70    3.60
   0  11  10   -5.00    3.70
   0  11 -10    1.90    5.40
   0  11 -10  -17.70   38.70
   0  11  10    8.70   26.20
  -1 -11 -10   51.69   12.10
  -1 -11 -10   65.59   15.00
   1 -11  10   64.49   14.30
   1 -11  10  150.18   59.99
   1  11  10   42.60   11.40
  -1  11 -10   74.09   59.59
  -1  11 -10   47.30   12.20
   1  11  10   78.59   43.80
  -1  11 -10   62.89   12.70
   2 -11  10  128.09   76.39
   2 -11  10  -10.90    4.60
  -2 -11 -10    0.90    7.70
  -2 -11 -10   -1.60    7.50
   2  11  10  -35.10   46.50
   2  11  10   17.10   43.30
  -2  11 -10    2.50    6.00
  -2  11 -10    3.00    4.70
  -2  11 -10  -73.19   55.39
   2  11  10   -8.00    6.30
  -2 -12  10   -9.10    6.20
   2 -12 -10   -3.40    1.60
  -2 -12  10   -2.90    5.60
   2 -12 -10   -3.20    7.40
   2  12 -10   -8.90    6.70
  -1 -12  10   11.30    7.40
   1  12 -10    3.90    6.70
   1  12 -10   12.00    8.30
  -1  12  10   43.90   21.00
  -1  12  10    9.30    5.00
   1  12 -10  -38.70   35.20
   0 -12  10   56.79   42.40
   0 -12 -10    9.50    5.40
   0 -12  10    8.90    5.80
   0 -12 -10   17.20    8.00
   0  12 -10    8.30    6.80
   0  12  10  -21.10   22.20
   0  12 -10   20.00   43.00
   0  12 -10    1.90    4.70
   0  12  10   18.50    8.70
  -1 -12 -10   43.40   11.70
  -1 -12 -10   56.69   13.20
   1 -12  10   60.49   16.10
   1 -12  10   73.99   61.19
   1  12  10   48.00   12.10
  -1  12 -10  119.09   64.59
  -1  12 -10   60.79   12.70
   1  12  10   26.10   49.10
  -1  12 -10   60.09   13.00
  -2 -12 -10   67.79   16.20
  -2 -12 -10  100.39   17.30
   2  12  10  119.69   67.69
   2  12  10  109.69   84.89
  -1 -13  10   21.80   55.69
   1 -13 -10    9.40    7.20
   1 -13 -10    6.70    4.30
  -1 -13  10    3.10    6.50
   1  13 -10   -1.80    5.80
  -1  13  10   12.00   27.30
   1  13 -10  -19.40   53.69
   1  13 -10   -1.20    5.90
  -1  13  10    0.70    4.80
   0 -13 -10  138.29   27.30
   0 -13  10  215.88   22.40
   0 -13 -10  232.58   20.40
   0 -13  10  259.07   93.39
   0  13  10  303.77   74.09
   0  13  10  208.08   20.20
   0  13 -10  213.98   21.20
   0  13 -10  214.38   23.70
   0  13 -10  134.79   70.79
   1 -13  10  139.09   71.09
  -1 -13 -10  -13.50    8.20
   1 -13  10   -8.70    6.30
  -1 -13 -10   -5.10    7.30
  -1  13 -10   -3.50    4.80
  -1  13 -10  -47.10   62.39
   1  13  10   -0.20    5.70
  -1  13 -10   -8.80    5.30
   1 -14 -10   44.80    8.70
  -1 -14  10  244.98   98.79
  -1 -14  10   55.79   13.70
   1 -14 -10   38.20   10.40
   1  14 -10  -71.79   61.19
  -1  14  10   31.40    9.20
   1  14 -10   43.60   14.80
   1  14 -10   39.40   12.80
   0 -14 -10   -7.40    4.80
   0 -14  10   83.59   70.39
   0 -14 -10    4.90    5.80
   0 -14  10  -11.60    5.90
   0  14  10  -38.70   38.30
   0  14 -10  -21.60   61.69
   0  14 -10   -8.50    6.80
   0  14  10    7.00    5.90
  -1 -14 -10  136.19   21.60
   1 -14  10  142.59   17.50
  -1 -14 -10  110.59   18.70
   1  14  10   -4.70   65.79
   1  14  10  154.18   22.60
  -1  14 -10  207.88  106.49
  -1  14 -10  146.79   18.60
  -1  14 -10  130.19   19.20
  -1 -15  10  110.99   17.90
  -1 -15  10   20.00   66.29
   1 -15 -10   97.59   11.00
   1  15 -10   61.89   16.20
   1  15 -10  -29.70   69.89
  -1  15  10   94.59   56.59
   1  15 -10   78.29   17.40
   0 -15 -10   88.49   15.40
   0 -15  10   89.89   16.70
   0 -15  10   26.20   57.59
   0 -15 -10   93.79   18.30
   0  15  10   18.10   47.60
   0  15 -10   84.49   16.50
   0  15  10   80.29   14.90
   0  15 -10   91.19   16.40
   0  15 -10   -7.30   74.29
   1 -15  10  139.69   95.49
  -1 -15 -10   10.40    8.90
  -1  15 -10   36.90  123.49
   2   0 -11    5.10    4.50
  -1   0  11   17.40   39.10
   0   0  11   42.50   26.90
   0   0  11    4.70    4.10
   0   0 -11    2.80    3.60
   0   0 -11  -13.00   22.40
   1   0  11    3.10   26.80
   1   0  11   -4.70    5.00
  -1   0 -11    2.90    5.10
  -1   0 -11   54.39   38.20
  -1   0 -11    2.10    5.00
   2   0  11   83.19   42.40
  -2   0 -11   31.50   49.60
  -2  -1  11    9.70    4.90
   2  -1 -11   10.20    4.20
   2   1 -11    6.70    5.10
  -2   1  11    7.80    4.40
  -1  -1  11   22.80    6.80
   1  -1 -11   26.90    7.40
   1   1 -11   19.80    7.40
   1   1 -11   43.20   30.40
  -1   1  11    7.80    4.70
  -1   1  11   49.30   47.00
   0  -1  11  146.19   15.30
   0  -1  11  143.79   57.19
   0  -1 -11  160.68   16.00
   0   1  11  126.49   63.69
   0   1  11  132.49   14.30
   0   1 -11  100.39   48.30
   0   1 -11  162.98   16.30
  -1  -1 -11  270.67   23.60
  -1  -1 -11  256.77   22.10
   1  -1  11  259.37   90.49
   1  -1  11  276.47   22.50
  -1  -1 -11  304.87   66.89
  -1   1 -11  195.28   70.59
  -1   1 -11  246.58   21.70
   1   1  11  265.67   84.59
  -1   1 -11  277.17   24.00
   1   1  11  283.97   22.60
  -2  -1 -11  100.29   18.40
   2  -1  11  117.09   18.80
  -2  -1 -11  136.59   53.29
  -2  -1 -11  114.39   17.90
  -2   1 -11   74.29   14.50
  -2   1 -11   87.49   13.70
   2   1  11  111.49   52.89
  -2   1 -11   45.80   48.40
   2   1  11  116.49   18.30
   2  -2 -11  125.79   11.80
  -2  -2  11  132.29   13.60
   2   2 -11  133.99   13.90
  -2   2  11  134.99   12.40
  -1  -2  11  200.28   64.19
  -1  -2  11  183.88   16.80
   1  -2 -11  233.08   48.70
   1  -2 -11  173.28   15.50
  -1   2  11  159.38   15.00
   1   2 -11  190.98   63.19
   1   2 -11  181.68   16.50
  -1   2  11  189.58   60.79
   0  -2 -11   96.09   45.10
   0  -2  11  128.39   58.69
   0  -2 -11   80.69   15.90
   0  -2  11   93.59   14.80
   0  -2 -11   98.19   14.70
   0   2  11   79.19   13.00
   0   2  11   50.79   43.20
   0   2 -11   90.29   14.40
   0   2 -11  193.48   65.99
   1  -2  11    6.70    5.80
  -1  -2 -11    6.40    5.90
  -1  -2 -11   -8.60   31.80
   1  -2  11    9.70   45.60
  -1  -2 -11   13.50    6.10
  -1   2 -11   19.20   32.60
  -1   2 -11    6.20    5.50
   1   2  11   62.29   30.20
   1   2  11   -2.60    3.60
   2  -2  11  303.87   26.00
  -2  -2 -11  175.08   73.19
  -2  -2 -11  338.87   28.20
   2  -2  11  438.06   94.49
  -2  -2 -11  298.67   22.90
   2   2  11  308.87   26.40
  -2   2 -11  294.47   25.80
  -2   2 -11  291.77   22.70
  -2   2 -11  300.37   89.29
   2   2  11  452.85   91.49
   2  -3 -11    8.60    6.50
  -2  -3  11    7.70    5.40
   2  -3 -11   -2.50    3.00
   2   3 -11   -1.30    4.40
  -2   3  11   -1.60    2.90
  -1  -3  11    0.20    3.80
   1  -3 -11   -2.60    3.40
   1  -3 -11   36.10   33.20
  -1  -3  11  -26.30   23.50
   1  -3 -11   -2.80    4.90
  -1   3  11  -12.40   26.00
   1   3 -11    4.80    4.20
  -1   3  11    0.70    2.90
   1   3 -11   -7.70   23.40
   0  -3 -11  230.28   23.20
   0  -3 -11   85.99   47.30
   0  -3 -11  193.58   17.70
   0  -3  11  172.38   17.30
   0  -3  11  318.27   66.59
   0   3  11  179.88   17.10
   0   3  11  253.37   77.29
   0   3 -11  188.88   18.00
  -1  -3 -11   21.10   27.90
  -1  -3 -11   57.09   12.70
   1  -3  11   64.49   13.30
   1  -3  11  166.18   58.99
  -1  -3 -11   73.79   14.20
   1   3  11   81.19   14.30
   1   3  11   92.69   43.20
  -1   3 -11   35.00   43.20
  -1   3 -11   66.09   12.40
   2  -3  11  224.58   80.09
  -2  -3 -11   54.89   47.00
  -2  -3 -11   99.89   16.80
  -2  -3 -11  109.99   13.90
   2  -3  11   86.49   14.90
   2   3  11   73.99   14.40
  -2   3 -11   57.99   12.30
   2   3  11   72.69   51.89
  -2   3 -11  104.99   13.10
  -2   3 -11   86.99   68.29
   2  -4 -11  133.49   21.70
  -2  -4  11  146.89   15.60
   2  -4 -11  139.59   12.10
   2   4 -11  168.78   15.90
   1  -4 -11    5.20    3.90
  -1  -4  11  -22.90   30.50
  -1  -4  11    2.20    4.80
   1  -4 -11    2.60    4.40
   1  -4 -11  -28.10   21.30
   1   4 -11    6.30    5.70
   1   4 -11  -19.20   27.50
  -1   4  11    5.40    3.60
  -1   4  11   19.30   23.90
   0  -4 -11   23.70    9.00
   0  -4 -11   18.90    6.70
   0  -4  11   70.89   33.40
   0   4  11   38.10   30.20
   0   4  11   28.30    8.60
   0   4 -11   10.30    4.50
   0   4 -11   -1.30   21.20
   1  -4  11  141.79   16.50
  -1  -4 -11  136.69   16.70
  -1  -4 -11  169.08   18.80
  -1  -4 -11  125.19   45.90
  -1   4 -11  206.48   65.79
  -1   4 -11  140.79   16.50
   1   4  11  137.49   65.29
   1   4  11  150.28   16.50
   2  -4  11   56.49   55.19
   2  -4  11   63.89   13.10
  -2  -4 -11   57.59   12.10
  -2  -4 -11    8.30   48.60
  -2  -4 -11   55.59   12.70
  -2   4 -11   92.09   14.00
   2   4  11   73.69   14.20
  -2   4 -11   58.59   13.50
  -2   4 -11   70.99   45.30
   2  -5 -11   68.39    8.40
   2  -5 -11   81.99   17.90
  -2  -5  11   66.39   11.80
  -2   5  11   69.79    7.90
   2   5 -11  107.49   15.40
   1  -5 -11  243.98   18.50
  -1  -5  11  238.98   20.50
   1  -5 -11  271.37   27.50
  -1  -5  11  362.06   74.29
  -1   5  11  284.17   19.70
   1   5 -11  287.47   22.10
   1   5 -11  199.78   79.49
  -1   5  11  258.97   53.79
   0  -5 -11    2.50    3.30
   0  -5 -11    3.30    3.70
   0  -5  11    6.30    4.30
   0   5  11    3.60    4.60
   0   5 -11  -24.70   28.80
   0   5 -11   -4.80    4.60
   0   5  11  -15.10   26.10
   1  -5  11  140.39   39.90
  -1  -5 -11   98.99   51.89
  -1  -5 -11   99.79   17.30
  -1  -5 -11   94.09   16.10
   1  -5  11  100.99   16.00
   1   5  11   40.10   44.40
   1   5  11   66.39   13.40
  -1   5 -11   97.29   49.50
  -1   5 -11   75.89   13.60
   2  -5  11    4.60    6.10
  -2  -5 -11  -17.70   47.90
   2  -5  11  153.58   70.99
  -2  -5 -11    1.20    5.30
  -2  -5 -11    9.50    5.60
  -2   5 -11   12.70    5.70
  -2   5 -11   16.70    7.50
   2   5  11   -4.50    7.00
  -2   5 -11    4.60   49.70
   2  -6 -11   11.20   15.30
  -2  -6  11   11.10    5.20
   2  -6 -11    4.80    3.30
  -2   6  11    9.80    3.70
   2   6 -11    6.30    5.60
   1  -6 -11    0.80    3.70
   1  -6 -11   -0.20    5.40
  -1  -6  11    6.90   39.60
  -1  -6  11    3.50    4.20
   1   6 -11   28.40   30.60
   1   6 -11    1.60    3.50
  -1   6  11    9.20    4.50
   0  -6  11   64.79   12.70
   0  -6 -11   42.70   12.50
   0  -6 -11   48.80   36.60
   0  -6  11   56.19   36.40
   0  -6 -11   62.69   11.90
   0   6 -11  -10.00   34.50
   0   6 -11   52.59   11.40
   0   6  11   47.40   10.70
  -1  -6 -11   81.29   15.50
  -1  -6 -11   56.89   12.20
   1  -6  11   70.29   13.90
  -1  -6 -11   33.40   32.20
   1  -6  11  150.48   64.09
  -1   6 -11  113.89   43.10
   1   6  11   25.70   46.90
   1   6  11   73.69   13.90
  -1   6 -11   82.29   15.00
  -2  -6 -11    8.50    6.50
   2  -6  11    4.60    5.70
  -2  -6 -11  -13.90   41.30
   2  -6  11  103.19   55.49
  -2  -6 -11    6.10    5.00
  -2   6 -11   -6.60    6.40
  -2   6 -11    2.60   52.09
  -2   6 -11   -3.10    5.30
   2   6  11    1.30    5.90
  -2  -7  11  313.67   24.10
   2  -7 -11  317.47   17.10
   2  -7 -11  285.07   31.00
   2   7 -11  285.77   23.30
  -2   7  11  289.17   16.00
  -1  -7  11   -1.30    4.50
   1  -7 -11   -1.30    3.30
   1  -7 -11   -5.90    2.90
   1   7 -11   -1.70   29.40
   1   7 -11   -1.60    5.00
  -1   7  11    2.10    3.70
   0  -7  11  105.59   17.00
   0  -7 -11   82.49   16.50
   0  -7 -11   62.49   12.40
   0  -7  11  103.69   48.20
   0   7  11  106.89   15.50
   0   7  11   38.60   36.80
   0   7 -11   77.59   14.90
   0   7 -11   51.69   47.10
   1  -7  11  124.39   87.39
  -1  -7 -11    0.50    5.80
  -1  -7 -11   17.30    6.80
   1  -7  11    9.50    7.70
  -1  -7 -11  -38.30   22.90
  -1   7 -11  -53.19   35.90
  -1   7 -11   -1.60    3.50
   1   7  11   14.10    6.50
   1   7  11  -43.50   30.20
  -2  -7 -11   59.19   13.50
  -2  -7 -11   87.39   14.70
   2  -7  11   88.89   16.10
  -2  -7 -11   34.30   45.50
   2  -7  11  224.08   89.59
  -2   7 -11   76.09   12.70
   2   7  11   44.60   52.59
  -2   7 -11   59.79   12.30
   2   7  11   75.39   16.50
  -2   7 -11   81.79   63.59
   2  -8 -11    3.40    3.20
  -2  -8  11    3.00    5.50
   2   8 -11  -11.20    4.00
  -2   8  11    4.20    4.00
   1  -8 -11   -0.90    7.10
  -1  -8  11    7.10    6.30
   1   8 -11   72.59   42.10
   1   8 -11    4.60    5.50
   0  -8 -11   48.80   10.40
   0  -8  11   15.80    7.60
   0  -8 -11   24.60    9.60
   0  -8  11   29.10   47.40
   0   8  11   28.40    7.90
   0   8  11   31.60   29.90
   0   8 -11    9.20   42.40
   0   8 -11   31.50    9.60
  -1  -8 -11   27.50    9.20
  -1  -8 -11   11.80    5.50
  -1  -8 -11   70.49   38.80
   1  -8  11   45.90   11.60
  -1   8 -11   26.90    8.70
  -1   8 -11  -38.60   39.20
   1   8  11   30.10    9.40
   1   8  11   23.70   39.50
   2  -8  11  -62.49   48.60
  -2  -8 -11    2.30    5.50
  -2  -8 -11   20.60    9.90
   2  -8  11    4.40    4.70
  -2   8 -11   12.30    7.10
  -2   8 -11    4.50   81.09
  -2   8 -11    6.50    5.70
   2   8  11   -0.30    5.30
  -2  -9  11   -1.50    6.80
   2  -9 -11   16.00   10.80
   2  -9 -11   -1.50    2.50
   2   9 -11    4.70    8.80
   2   9 -11   -8.70    6.20
  -2   9  11    0.60    2.30
  -2   9  11  -16.90   17.30
   1  -9 -11   65.49   11.00
  -1  -9  11  103.79   56.49
  -1  -9  11   72.29   14.40
   1  -9 -11   59.39   13.80
  -1   9  11   72.99   11.50
   1   9 -11   41.00   43.10
   1   9 -11   58.39   12.60
   0  -9  11   26.00    7.80
   0  -9 -11   28.50    7.80
   0  -9 -11   24.90    9.40
   0   9 -11   11.20    6.20
   0   9 -11   85.69   56.49
   0   9  11   42.70   10.00
   0   9  11   42.10   38.80
  -1  -9 -11   70.89   32.00
   1  -9  11   85.59   64.29
   1  -9  11   65.19   14.90
  -1  -9 -11   50.09   12.70
  -1  -9 -11   76.79   14.40
  -1   9 -11   29.00    9.50
   1   9  11   63.89   12.30
   1   9  11  -27.00   40.90
  -1   9 -11  -10.10   42.50
  -1   9 -11   44.00   11.40
  -2  -9 -11   23.40    8.90
   2  -9  11    4.10   10.00
  -2  -9 -11   13.20    6.20
   2  -9  11  217.28   87.89
   2   9  11   23.00   11.10
  -2   9 -11    3.20    5.40
   2   9  11   70.99   55.69
  -2   9 -11    3.70    6.10
  -2   9 -11  -10.10   68.49
   2 -10 -11    2.50    4.10
  -2 -10  11   -7.70    6.40
   2  10 -11  -15.00   10.50
   1 -10 -11   -2.10    8.20
  -1 -10  11   27.80    9.30
  -1 -10  11  -11.00   44.30
   1 -10 -11   17.00    6.50
   1  10 -11   12.20    8.20
   1  10 -11    5.30    4.90
   1  10 -11  -26.40   48.40
  -1  10  11   13.80    6.20
   0 -10  11   19.70    8.00
   0 -10  11   49.30   48.50
   0 -10 -11   18.30    9.60
   0 -10 -11   25.70    7.90
   0  10 -11    8.90   53.99
   0  10 -11   13.90    8.70
   0  10  11   26.90    9.00
   0  10 -11   19.50    8.00
   1 -10  11  -10.40    5.00
  -1 -10 -11   19.40    7.60
   1 -10  11  -37.00   68.19
  -1 -10 -11    0.70    5.90
   1  10  11  -35.60   31.50
  -1  10 -11   -5.80    5.20
   1  10  11   16.50    6.70
  -1  10 -11    8.80    6.20
  -1  10 -11  -18.00   49.20
  -2 -10 -11  137.59   20.40
   1 -11 -11  133.29   22.30
  -1 -11  11  259.17   81.09
  -1 -11  11  133.29   17.00
   1 -11 -11  168.78   14.70
   1  11 -11  121.79   20.90
   1  11 -11  183.88   77.49
  -1  11  11  141.09   14.80
   1  11 -11  122.69   18.90
   0 -11  11  255.67   83.09
   0 -11  11  257.47   24.40
   0 -11 -11  217.38   19.80
   0  11  11  207.78   20.30
   0  11 -11  209.98   22.60
   0  11 -11  225.58   21.50
   0  11 -11  134.69   79.39
   1 -11  11  143.69   70.79
  -1 -11 -11    0.30    5.90
  -1  11 -11    0.30    4.90
  -1  11 -11   18.40   60.49
   1  11  11    2.70    4.90
  -1 -12  11   17.60    8.50
   1 -12 -11   33.50   12.50
   1 -12 -11   18.90    6.60
  -1 -12  11  -35.50   46.10
   1  12 -11   25.20   10.90
   1  12 -11   21.20    7.90
  -1  12  11   26.00    7.50
   1  12 -11   64.79   59.69
   0 -12  11   29.90   51.29
   0 -12 -11    8.00    8.60
   0 -12 -11    5.10    5.70
   0 -12  11   16.10    7.20
   0  12  11    8.50    6.20
   0  12  11   27.80   31.90
   0  12 -11  -14.80    5.60
   0  12 -11  -47.50   55.19
   0  12 -11    7.00    4.90
   1 -12  11   29.20   56.49
   1 -12  11   40.30   12.40
  -1 -12 -11   29.60   11.90
  -1 -12 -11   32.60   12.00
   1  12  11  -66.39   56.09
  -1  12 -11   28.40    9.80
  -1  12 -11   25.80   10.10
  -1  12 -11   50.59   77.19
   1  12  11   19.80    9.20
   1 -13 -11   41.50    9.40
  -1 -13  11  109.09   68.79
  -1 -13  11   53.29   11.70
  -1  13  11   24.90   40.60
   1  13 -11   34.90    9.80
   1  13 -11   13.10   11.20
   1  13 -11   67.49   78.69
   0 -13 -11   11.50    7.70
   0 -13  11   37.30   11.00
   0 -13  11   34.10   44.10
   0 -13 -11   21.00    9.40
   0  13  11   29.10    9.90
   0  13 -11  -58.39   48.20
   0  13  11   18.10   42.10
   0  13 -11   31.90   20.50
   0  13 -11    4.10    8.70
  -1 -13 -11   22.50    9.20
   1 -13  11   19.50    9.20
  -1 -13 -11   11.80    7.10
   1 -13  11   57.59   92.19
  -1  13 -11   21.40   10.20
  -1  13 -11   12.40    6.30
   1  13  11   29.60   11.90
  -1  13 -11   24.20   87.59
   0 -14 -11  -13.40    4.80
   0 -14  11  -22.30   71.79
   0 -14  11    2.20    6.60
   0  14 -11   -2.20    7.80
   0  14  11   -3.70    7.50
   0  14 -11  -80.29   60.69
   0  14 -11  -10.60    6.90
  -2   0  12    2.90    3.80
   2   0 -12    1.50    4.50
  -1   0  12   41.10    9.60
   1   0 -12   35.10    8.50
  -1   0  12   39.90   44.30
   0   0  12  669.03   37.00
   0   0  12  570.14  107.09
   0   0 -12  712.03   38.20
   0   0 -12  441.16  123.79
   1   0  12  276.27   23.60
   1   0  12  426.26  124.69
  -1   0 -12  275.97   24.70
  -1   0 -12  324.37   25.70
  -2   0 -12   79.99   39.50
   2   0  12   57.29   55.49
   2  -1 -12    2.30    3.90
  -2  -1  12    1.70    4.70
  -2   1  12    7.40    5.00
   2   1 -12    0.60    3.90
  -1  -1  12  179.88   17.00
  -1  -1  12  157.48   67.59
   1  -1 -12  206.88   18.00
   1   1 -12  203.48   18.20
   1   1 -12  162.68   55.99
  -1   1  12  102.49   59.89
  -1   1  12  192.98   17.20
   0  -1 -12   67.59   13.20
   0  -1  12  131.69   60.19
   0  -1 -12   36.10   40.90
   0  -1  12  135.39   29.10
   0  -1 -12   90.19   17.00
   0   1 -12   74.09   14.40
   0   1 -12   75.89   42.10
   0   1  12  122.49   63.89
   0   1  12  104.89   16.00
   1  -1  12  216.48   79.69
   1  -1  12  230.88   22.00
  -1  -1 -12  223.18   22.90
  -1  -1 -12  270.37   23.50
  -1  -1 -12  135.49   62.89
   1   1  12  175.68   75.89
   1   1  12  243.78   22.10
  -1   1 -12  195.18   70.69
  -1   1 -12  194.88   21.30
  -1   1 -12  286.37   24.50
  -2  -1 -12   63.09   19.20
  -2  -1 -12   93.49   15.80
   2  -1  12  226.08   67.09
  -2  -1 -12   73.79   60.69
   2  -1  12  103.39   17.50
  -2   1 -12  113.09   62.69
   2   1  12  102.39   18.10
  -2   1 -12   71.89   13.10
   2   1  12   16.60   58.59
  -2   1 -12   63.39   15.10
   2  -2 -12   67.79   10.50
  -2  -2  12   86.79   13.20
  -2   2  12   65.19   10.00
   2   2 -12  107.29   14.80
  -1  -2  12   44.60   46.10
   1   2 -12   68.69   34.40
  -1   2  12   68.89   55.89
   0  -2 -12   60.09   15.00
   0  -2  12   87.59   52.59
   0  -2 -12   46.20   11.10
   0  -2  12   45.30   10.50
   0  -2 -12   -3.50   29.90
   0   2  12   39.90    8.90
   0   2 -12   12.70   39.70
   0   2  12  100.69   67.99
  -1  -2 -12   13.90    6.40
  -1  -2 -12  -13.50   42.10
  -1  -2 -12   20.00    8.70
   1  -2  12    2.90    6.50
   1   2  12    7.50    5.60
   1   2  12   47.00   39.40
  -1   2 -12   20.80    8.90
  -1   2 -12    3.30   40.80
   2  -2  12   99.79   74.39
   2  -2  12    9.50    6.70
  -2  -2 -12   16.40    6.60
  -2  -2 -12  -14.00   49.20
  -2   2 -12    9.00    7.00
   2   2  12   46.20   54.59
   2   2  12    4.70   13.30
  -2   2 -12  -27.50   64.29
  -2   2 -12   -0.90    6.90
   2  -3 -12   27.40   11.30
  -2  -3  12   26.10    7.80
   2  -3 -12   26.00    6.90
  -2   3  12   44.10    8.60
   2   3 -12   26.40    7.90
   1  -3 -12  232.08   19.40
  -1  -3  12  211.68   19.20
  -1  -3  12  219.88   74.49
   1  -3 -12  240.68   26.00
  -1   3  12  267.57   20.00
   1   3 -12  224.88   19.90
   0  -3  12   -7.40    3.60
   0  -3 -12  -15.60   31.60
   0  -3  12  -36.30   34.90
   0  -3 -12    7.10    5.60
   0  -3 -12   -6.50    3.80
   0   3 -12    2.00    3.60
   0   3  12    0.70    3.60
   0   3 -12   60.89   43.20
   0   3  12   13.70   30.80
  -1  -3 -12    2.20    5.00
   1  -3  12    4.50    4.20
  -1  -3 -12   -2.20    5.40
   1  -3  12   94.39   45.90
  -1  -3 -12    5.90   29.60
   1   3  12    1.90    6.00
  -1   3 -12   10.50   33.60
  -1   3 -12   -0.10    3.60
   1   3  12   18.70   40.80
  -2  -3 -12   11.70    7.00
   2  -3  12   53.29   69.59
   2  -3  12    7.20    8.30
  -2   3 -12  -60.39   44.50
   2   3  12    6.50    8.10
  -2   3 -12    3.90    6.80
  -2   3 -12   17.40    7.30
   2   3  12   59.89   57.89
   2  -4 -12    6.10    6.20
  -2  -4  12   -5.60    4.30
   2  -4 -12   -3.50    3.10
  -2   4  12    3.30    3.90
   2   4 -12   -2.10    4.30
  -1  -4  12    7.70    5.80
  -1  -4  12   92.79   43.90
   1  -4 -12    3.90    4.20
   1  -4 -12  -13.00    6.20
   1   4 -12   -9.30   24.20
   1   4 -12    9.60    5.60
  -1   4  12    7.40    4.60
   0  -4  12   22.90   34.50
   0  -4  12    4.20    4.00
   0  -4 -12   -2.90    3.80
   0  -4 -12    6.20    8.00
   0  -4 -12   38.60   30.60
   0   4 -12  -21.40   26.30
   0   4  12  -29.00   36.30
   0   4 -12   -6.00    4.60
   0   4  12    4.20    3.80
  -1  -4 -12   -6.10   36.90
  -1  -4 -12    6.80    5.80
   1  -4  12   11.90    5.80
  -1  -4 -12   -1.60    4.80
   1  -4  12  110.69   59.99
   1   4  12  -43.00   27.80
  -1   4 -12  -62.89   37.10
   1   4  12    9.60    6.10
  -1   4 -12   -3.10    5.50
   2  -4  12  -10.60    7.30
  -2  -4 -12  -16.60   49.70
   2  -4  12  -33.20   63.49
  -2  -4 -12   16.50    6.20
   2   4  12    1.60    6.60
   2   4  12  -31.60   55.29
  -2   4 -12    3.60    5.70
  -2   4 -12    1.40    6.60
   2  -5 -12    6.90    9.50
   2  -5 -12   -2.10    3.10
  -2  -5  12    0.60    4.50
   2   5 -12    3.00    6.00
  -1  -5  12  154.98   69.39
   1  -5 -12  178.88   16.70
   1  -5 -12  188.68   22.80
  -1  -5  12  183.18   18.80
   1   5 -12  169.68   17.40
  -1   5  12  187.38   16.70
   1   5 -12   97.69   65.39
   0  -5  12    7.60   49.20
   0  -5 -12   41.10   10.10
   0  -5 -12   42.30   13.40
   0  -5  12   33.20   10.40
   0  -5 -12   44.70   27.00
   0   5  12   15.00   38.20
   0   5 -12   12.70   48.40
   0   5 -12   38.90   10.10
   0   5  12   27.20    8.70
  -1  -5 -12    1.20    4.20
   1  -5  12   -4.60    5.50
   1  -5  12    8.10   41.70
  -1  -5 -12  -36.80   26.20
  -1  -5 -12   -7.60    7.00
  -1   5 -12    3.90    5.30
   1   5  12   -1.60    5.30
  -1   5 -12  -11.60   49.30
   1   5  12  -27.10   51.89
  -2  -5 -12   22.70   12.50
   2  -5  12   60.59   81.59
  -2  -5 -12  -15.30   61.59
   2  -5  12    0.00    7.20
  -2  -5 -12   -1.40    7.00
  -2   5 -12   29.40   71.59
   2   5  12    7.80    9.00
  -2   5 -12   -5.70    5.30
  -2   5 -12    6.30    8.20
   2  -6 -12    6.80    4.20
  -2  -6  12   35.80   10.70
   2  -6 -12    2.70    9.20
   2   6 -12   20.80    7.30
  -2   6  12    6.40    3.50
  -1  -6  12   25.90    7.60
   1  -6 -12   20.00    6.10
   1  -6 -12   15.50   17.70
  -1  -6  12   58.29   46.20
   1   6 -12   26.60    7.90
  -1   6  12   42.40    8.30
   1   6 -12  -16.70   36.90
   0  -6  12   53.09   12.30
   0  -6 -12   28.00   11.40
   0  -6 -12   28.20    8.80
   0  -6  12  115.29   50.59
   0   6 -12   32.90    9.30
   0   6  12   71.79   39.40
   0   6  12   38.80   10.20
   0   6 -12   97.69   66.19
  -1  -6 -12   -3.00   27.90
   1  -6  12    8.00    6.80
  -1  -6 -12    6.30    4.90
   1  -6  12   27.90   52.89
   1   6  12    3.80   40.90
   1   6  12   10.00    6.70
  -1   6 -12   -6.50    5.10
  -1   6 -12   23.50   48.50
  -2  -6 -12    8.70    9.10
   2  -6  12  192.78  132.89
   2  -6  12   12.90    8.70
  -2  -6 -12   11.80    9.30
  -2  -6 -12  -25.20   48.40
   2   6  12   41.00   11.60
  -2   6 -12   31.80    8.30
   2   6  12   46.60   59.79
  -2   6 -12  -58.49   84.89
   2  -7 -12   -1.40    2.90
  -2  -7  12    9.80    6.80
   2  -7 -12   -6.90    9.10
   2   7 -12  -14.90    7.80
  -2   7  12    3.90    3.30
  -1  -7  12  118.29   64.69
  -1  -7  12  105.89   16.80
   1  -7 -12  104.19   19.70
   1  -7 -12   91.49   11.30
  -1   7  12   89.79   13.50
   1   7 -12  232.18   79.09
   1   7 -12   95.39   15.30
   0  -7  12   -7.40   41.60
   0  -7  12   14.40    7.20
   0  -7 -12    6.30    7.80
   0  -7 -12   -1.70    4.90
   0   7 -12  -56.79   46.50
   0   7 -12   17.10    7.20
   0   7  12   21.60    6.60
  -1  -7 -12   19.50    8.20
   1  -7  12   49.99   12.20
   1  -7  12  178.78   72.49
  -1  -7 -12    3.30   28.60
  -1   7 -12   90.49   44.40
   1   7  12   39.90   10.20
  -1   7 -12   33.50    9.50
   1   7  12   -6.70   38.40
  -1  -8  12    1.00    4.40
   1  -8 -12   11.00    5.00
   1  -8 -12   -1.10    7.50
  -1  -8  12   70.19   50.39
  -1   8  12    2.40    4.90
   1   8 -12    7.10    5.70
   0  -8 -12  196.18   19.60
   0  -8  12  120.59   68.19
   0  -8  12  171.98   19.60
   0  -8 -12  173.18   22.20
   0   8 -12  158.88   78.59
   0   8  12  208.98   19.90
   0   8 -12  158.58   18.00
   1  -8  12  245.58   29.30
   1  -8  12  271.37   97.69
  -1  -8 -12  194.58   23.10
  -1   8 -12  226.38   21.90
   1   8  12  217.98   22.70
  -1  -9  12  -44.30   51.29
  -1  -9  12   16.40    8.30
   1  -9 -12   10.60    8.80
   1  -9 -12   14.20    6.20
  -1   9  12   12.70    6.50
   1   9 -12   12.20    7.50
   0  -9 -12   41.60   10.50
   0  -9 -12   19.40   10.00
   0  -9  12   28.80   11.10
   0  -9  12   60.49   59.99
   0   9 -12   -3.20   45.40
   0   9  12   47.40   11.50
   0   9 -12   28.10    9.40
  -1  -9 -12   96.39   17.50
   1  -9  12   94.29   17.30
  -1   9 -12   94.29   17.20
  -1   9 -12   92.39   17.00
   1   9  12  125.49   19.40
  -1   9 -12   63.09   65.09
  -1 -10  12   12.50    8.90
   1 -10 -12    8.90    5.70
   1 -10 -12   12.90    9.30
  -1  10  12    4.00    6.60
   1  10 -12   -3.80    7.30
   1  10 -12    1.60    7.80
   0 -10  12   -4.20    4.80
   0 -10  12    3.70   61.89
   0 -10 -12    1.90    5.20
   0 -10 -12    4.00    8.00
   0  10 -12   11.20    8.00
   0  10 -12  -23.20   60.39
   0  10 -12    4.70    6.00
   0  10  12    0.00    5.60
  -1 -10 -12   12.90    9.50
   1 -10  12   17.10    9.90
  -1 -10 -12   26.60    9.70
   1 -10  12   80.59   81.99
   1  10  12   25.20    9.00
  -1  10 -12  -59.39   61.29
  -1  10 -12    6.80    5.60
  -1  10 -12   10.40    8.40
  -1 -11  12   97.29   17.40
   1 -11 -12  121.29   13.70
   1  11 -12   91.09   19.60
   1  11 -12   82.19   15.90
   0 -11  12  110.59   63.09
   0  11  12    5.90    6.60
   0  11 -12    3.30    6.70
   1 -11  12  101.59   73.89
   0 -12  12   54.39   14.00
   0 -12 -12   20.10    9.50
   0 -12  12   21.50   67.29
   0  12 -12   23.30   11.60
   0  12  12   34.90   10.70
   0  12 -12  -38.60  114.69
   0  12 -12   45.30   11.90
   1   0 -13    0.10    5.20
  -1   0  13   -0.20    3.80
   0   0  13    1.00    4.70
   0   0  13   40.00   47.50
   0   0 -13   15.30   44.80
   0   0 -13    8.10    5.50
  -1   0 -13    5.00    7.10
   1   0  13   -6.10    3.20
  -1   0 -13    3.40    7.40
   1   0  13  -29.70   56.79
  -1  -1  13   38.40    9.60
   1  -1 -13   37.50   10.20
   1   1 -13   32.30    9.40
  -1   1  13   32.40    9.20
   0  -1  13   -5.90   42.00
   0  -1 -13   23.70    9.50
   0  -1  13    6.90    6.00
   0  -1 -13   14.80    6.40
   0   1 -13    9.80    6.90
   0   1  13   21.30    6.90
   0   1  13   74.19   54.19
   0   1 -13   14.10   40.10
   1  -1  13   10.20    8.50
  -1  -1 -13   15.90    8.80
   1  -1  13   33.70   52.39
  -1   1 -13   13.60    7.80
  -1   1 -13    9.70    7.10
   1   1  13    5.70   54.39
   1   1  13   12.80    7.70
  -1   1 -13  -39.00   51.99
  -1  -2  13   10.10    6.20
   1  -2 -13   -6.00    7.80
   1  -2 -13   13.60    6.10
  -1   2  13    4.70    6.10
   1   2 -13    7.40    5.40
   0  -2  13  161.48   17.10
   0  -2  13   90.99   49.50
   0  -2 -13  182.48   23.00
   0   2 -13  180.68   19.50
   0   2  13  169.38   17.70
   0   2  13  285.97   85.09
   1  -2  13    7.90    5.60
  -1  -2 -13   27.70   41.10
   1  -2  13  -63.19   53.49
  -1  -2 -13    3.60    7.80
  -1  -2 -13    3.40    4.40
  -1   2 -13    3.50    6.20
  -1   2 -13    5.60    6.00
   1   2  13   -4.80    6.20
  -1   2 -13   16.10   56.69
   1   2  13    6.70   54.09
   1  -3 -13   -2.20    7.00
  -1  -3  13    2.50    4.90
   1  -3 -13   -0.80    5.10
  -1   3  13    7.00    5.00
   1   3 -13    6.80    6.00
   0  -3 -13    9.40    7.80
   0  -3  13  -47.80   37.10
   0  -3  13    5.20    6.30
   0  -3 -13    1.60    7.20
   0   3 -13    1.00    4.00
  -1  -3 -13    2.00    7.00
  -1  -3 -13   10.30   43.70
   1  -3  13   -1.70    4.50
  -1  -3 -13   -1.10    6.30
   1  -3  13   16.00   57.99
   1   3  13   -0.70    4.70
  -1   3 -13  -36.60   48.50
   1  -4 -13  134.59   15.30
   1  -4 -13  156.28   24.20
  -1  -4  13  140.79   17.10
   1   4 -13  151.78   17.30
  -1   4  13  121.09   15.00
   0  -4 -13   49.90   17.20
   0  -4  13   57.99   12.60
   0  -4  13  127.19   63.09
   0  -4 -13   60.49   13.40
   0   4  13   68.69   12.60
   0   4 -13   64.19   46.60
   0   4 -13   39.60   11.00
  -1  -4 -13   21.80    7.80
   1  -4  13  -41.00   53.59
   1  -4  13   45.40   12.30
  -1  -4 -13   41.10   13.00
  -1  -4 -13  -17.50   63.99
   1   4  13  163.58   63.79
   1   4  13   25.70    9.70
  -1   4 -13  -35.80   48.00
  -1   4 -13   31.80   10.40
  -1  -5  13   11.80    7.90
   1  -5 -13   30.80   11.90
   1  -5 -13   -4.90    5.40
   1   5 -13   -3.50    6.40
  -1   5  13   13.30    6.10
   0  -5  13  -28.90   55.59
   0  -5 -13    1.30    6.20
   0  -5  13   -3.50    5.20
   0   5 -13   -6.40    5.60
   0   5  13   -3.60    5.90
   0   5 -13   52.19   64.29
   1  -5  13    0.20    5.90
  -1  -5 -13  -10.20    6.00
   1  -5  13  -23.60   60.19
  -1  -5 -13   -3.70    6.90
  -1   5 -13  -69.49   47.10
   1   5  13   -3.90    6.20
  -1   5 -13   -4.90    6.30
   1  -6 -13    1.50    4.90
  -1  -6  13   -0.80    6.20
   1  -6 -13   -0.10    7.60
   1   6 -13    5.50    6.80
  -1   6  13    4.10    5.60
   0  -6  13  218.88   21.90
   0  -6  13  182.78   92.79
   0  -6 -13  213.98   21.20
   0  -6 -13  207.98   25.70
   0   6 -13  203.78   21.30
   0   6 -13  220.78   92.49
   0   6  13  212.68   20.30
  -1  -6 -13   42.50   12.70
   1  -6  13   32.10   10.60
   1  -6  13  168.48   66.29
  -1   6 -13   35.30   12.10
   1   6  13   45.30   13.00
   1  -7 -13   11.70    6.10
  -1  -7  13   11.80    8.40
   1  -7 -13  -15.40    9.40
   1   7 -13   10.50    7.70
  -1   7  13   10.60    6.50
   0  -7 -13   44.30   13.30
   0  -7  13   33.20   10.20
   0  -7  13    3.00   67.29
   0  -7 -13   42.40   10.90
   0   7 -13   95.59   55.99
   0   7  13   38.60   10.00
   0   7 -13   25.20    8.30
  -1  -7 -13   17.80    9.60
  -1  -7 -13   -4.60    5.90
   1  -7  13   99.19   67.69
   1  -7  13   25.00    9.50
  -1   7 -13   -3.00    6.40
   1   7  13   13.40    8.30
   1  -8 -13   28.90    8.20
  -1  -8  13   40.80   12.50
  -1   8  13   40.10   10.10
   1   8 -13   40.40   12.00
   0  -8  13  -35.40   56.79
   0  -8  13   27.30    9.60
   0  -8 -13   31.30    9.00
   0  -8 -13   33.10    9.60
   0   8 -13   25.40    9.10
   0   8  13   16.90    7.50
   0   8 -13   12.90   45.90
   1  -8  13   -3.30   93.79
   0  -9 -13   62.49   18.20
   0  -9 -13   91.09   16.20
   0  -9  13   67.69   18.80
   0   9 -13   34.10   69.89
   0   9 -13   92.69   19.10
   0   9  13   80.09   15.20
   1   0 -14   -6.90    5.80
   0   0  14   -1.40    4.60
   0   0 -14   -3.80    7.50
   0   0 -14  -13.10    5.30
   1   0  14  -10.70   65.89
  -1   0 -14   20.00   12.90
   1  -1 -14   -8.10    5.70
  -1  -1  14    9.60    6.50
   1   1 -14    5.20    7.80
  -1   1  14   13.00    6.90
   0  -1 -14    1.10    6.40
   0  -1  14   14.20    8.40
   0  -1 -14   -3.50    6.50
   0   1 -14    6.30    6.70
   0   1  14   29.40    8.70
   1  -1  14  177.98   92.09
  -1  -2  14   18.50    8.60
   1  -2 -14   -6.00    6.30
  -1   2  14   19.30    7.90
   1   2 -14   13.90    7.50
   0  -2  14   53.49   12.60
   0  -2 -14   65.49   17.10
   0  -2 -14   65.69   14.20
   0   2 -14   37.40   12.40
   0   2  14   68.69   13.90
   0  -3  14   17.70    7.60
   0  -3 -14   31.70   12.00
   0  -3 -14    9.70    7.80
   0   3 -14   10.20    7.60
   0   3  14   14.20    8.00
   0  -4 -14    5.40    7.80
   0  -4  14    6.90    8.60
   0  -4 -14    3.00    6.60
   0   4  14   14.40    7.90
   0   4 -14    8.80    6.00
   0  -5 -14   27.20    9.30
   0  -5  14   42.00   12.20
   0  -5 -14   34.00   14.70
   0   5  14   40.60    9.50
   0   5 -14   33.10   11.30
   0   0   0    0.00    0.00

_computing_structure_solution     'SHELXT 2014/5 (Sheldrick, 2014)'
;
_shelx_hkl_checksum   75489

