 
data_2RbNa_0ma
 
_audit_creation_method            'SHELXL-2018/3'
_shelx_SHELXL_version_number      '2018/3'
_chemical_name_systematic         ?
_chemical_name_common             ?
_chemical_melting_point           ?
_chemical_formula_moiety          ?
_chemical_formula_sum
 'C2 H2.83 N2 Na0.17 O2.50 Rb0.50' 
_chemical_formula_weight          141.46

loop_
 _atom_type_symbol
 _atom_type_description
 _atom_type_scat_dispersion_real
 _atom_type_scat_dispersion_imag
 _atom_type_scat_source
 'C'  'C'   0.0033   0.0016
 'International Tables Vol C Tables 4.2.6.8 and 6.1.1.4'
 'H'  'H'   0.0000   0.0000
 'International Tables Vol C Tables 4.2.6.8 and 6.1.1.4'
 'N'  'N'   0.0061   0.0033
 'International Tables Vol C Tables 4.2.6.8 and 6.1.1.4'
 'Na'  'Na'   0.0362   0.0249
 'International Tables Vol C Tables 4.2.6.8 and 6.1.1.4'
 'O'  'O'   0.0106   0.0060
 'International Tables Vol C Tables 4.2.6.8 and 6.1.1.4'
 'Rb'  'Rb'  -0.9393   2.9676
 'International Tables Vol C Tables 4.2.6.8 and 6.1.1.4'
 
_space_group_crystal_system       orthorhombic
_space_group_IT_number            31
_space_group_name_H-M_alt         'P m n 21'
_space_group_name_Hall            'P 2ac -2'
 
_shelx_space_group_comment
;
The symmetry employed for this shelxl refinement is uniquely defined
by the following loop, which should always be used as a source of
symmetry information in preference to the above space-group names.
They are only intended as comments.
;
 
loop_
 _space_group_symop_operation_xyz
 'x, y, z'
 '-x+1/2, -y, z+1/2'
 'x+1/2, -y, z+1/2'
 '-x, y, z'
 
_cell_length_a                    16.043(2)
_cell_length_b                    6.5928(10)
_cell_length_c                    11.7470(16)
_cell_angle_alpha                 90
_cell_angle_beta                  90
_cell_angle_gamma                 90
_cell_volume                      1242.4(3)
_cell_formula_units_Z             12
_cell_measurement_temperature     298(2)
_cell_measurement_reflns_used     3394
_cell_measurement_theta_min      2.54
_cell_measurement_theta_max        27.69
 
_exptl_crystal_description        strip
_exptl_crystal_colour             colorless
_exptl_crystal_density_meas       ?
_exptl_crystal_density_method     ?
_exptl_crystal_density_diffrn     2.269          
_exptl_crystal_F_000              830
_exptl_transmission_factor_min    0.0928  
_exptl_transmission_factor_max    0.1530
_exptl_crystal_size_max           ?
_exptl_crystal_size_mid           ?
_exptl_crystal_size_min           ?
_exptl_absorpt_coefficient_mu     6.002
_shelx_estimated_absorpt_T_min    ?
_shelx_estimated_absorpt_T_max    ?
_exptl_absorpt_correction_type    multi-scan
_exptl_absorpt_correction_T_min   ?
_exptl_absorpt_correction_T_max   ?
_exptl_absorpt_process_details    ?
_exptl_absorpt_special_details    ?
_diffrn_ambient_temperature       298(2)
_diffrn_radiation_wavelength      0.71073
_diffrn_radiation_type            MoK\a
_diffrn_source                    ?
_diffrn_measurement_device_type  'Bruker APEX-II CCD'
_diffrn_measurement_method          '\f and \w scans'
_diffrn_detector_area_resol_mean  ?
_diffrn_reflns_number             6985
_diffrn_reflns_av_unetI/netI      0.0652
_diffrn_reflns_av_R_equivalents   0.0488
_diffrn_reflns_limit_h_min        -21
_diffrn_reflns_limit_h_max        21
_diffrn_reflns_limit_k_min        -8
_diffrn_reflns_limit_k_max        8
_diffrn_reflns_limit_l_min        -15
_diffrn_reflns_limit_l_max        12
_diffrn_reflns_theta_min          2.539
_diffrn_reflns_theta_max          28.637
_diffrn_reflns_theta_full         25.242
_diffrn_measured_fraction_theta_max   0.995
_diffrn_measured_fraction_theta_full  0.998
_diffrn_reflns_Laue_measured_fraction_max    0.995
_diffrn_reflns_Laue_measured_fraction_full   0.998
_diffrn_reflns_point_group_measured_fraction_max   0.866
_diffrn_reflns_point_group_measured_fraction_full  0.891
_reflns_number_total              2856
_reflns_number_gt                 2179
_reflns_threshold_expression      'I > 2\s(I)'
_reflns_Friedel_coverage          0.662
_reflns_Friedel_fraction_max      0.723
_reflns_Friedel_fraction_full     0.772
 
_reflns_special_details
;
 Reflections were merged by SHELXL according to the crystal
 class for the calculation of statistics and refinement.
 
 _reflns_Friedel_fraction is defined as the number of unique
 Friedel pairs measured divided by the number that would be
 possible theoretically, ignoring centric projections and
 systematic absences. Completness statistics refer to single and
 composite reflections containing twin component 1 only.
;
 
_computing_data_collection        'Bruker APEX2'
_computing_cell_refinement         'Bruker SAINT'
_computing_data_reduction         'Bruker SAINT'
_computing_structure_solution     'SHELXS-97 (Sheldrick 2008)'
_computing_structure_refinement 'SHELXL-2018/3 (Sheldrick, 2018)'
_computing_molecular_graphics      'Bruker SHELXTL'
_computing_publication_material    'Bruker SHELXTL'
_refine_special_details
;
 Refined as a 2-component inversion twin.
;
_refine_ls_structure_factor_coef  Fsqd
_refine_ls_matrix_type            full
_refine_ls_weighting_scheme       calc
_refine_ls_weighting_details
'w=1/[\s^2^(Fo^2^)+(0.1073P)^2^+3.6490P] where P=(Fo^2^+2Fc^2^)/3'
_atom_sites_solution_primary      ?
_atom_sites_solution_secondary    ?
_atom_sites_solution_hydrogens    difmap
_refine_ls_hydrogen_treatment     refxyz
_refine_ls_extinction_method      none
_refine_ls_extinction_coef        .
_refine_ls_abs_structure_details
;
 Refined as an inversion twin.
;
_refine_ls_abs_structure_Flack    0.41(3)
_chemical_absolute_configuration  ?
_refine_ls_number_reflns          2856
_refine_ls_number_parameters      239
_refine_ls_number_restraints      13
_refine_ls_R_factor_all           0.0849
_refine_ls_R_factor_gt            0.0601
_refine_ls_wR_factor_ref          0.1812
_refine_ls_wR_factor_gt           0.1618
_refine_ls_goodness_of_fit_ref    1.029
_refine_ls_restrained_S_all       1.027
_refine_ls_shift/su_max           0.005
_refine_ls_shift/su_mean          0.000
 
loop_
 _atom_site_label
 _atom_site_type_symbol
 _atom_site_fract_x
 _atom_site_fract_y
 _atom_site_fract_z
 _atom_site_U_iso_or_equiv
 _atom_site_adp_type
 _atom_site_occupancy
 _atom_site_site_symmetry_order  
 _atom_site_calc_flag
 _atom_site_refinement_flags_posn
 _atom_site_refinement_flags_adp
 _atom_site_refinement_flags_occupancy
 _atom_site_disorder_assembly
 _atom_site_disorder_group
Rb01 Rb 0.500000 0.3087(3) 0.6013(5) 0.0323(6) Uani 1 2 d S T P . .
N1 N 0.2713(7) 0.4987(19) 0.4802(9) 0.020(2) Uani 1 1 d D . . . .
Na1 Na 0.500000 0.7240(12) 0.3605(9) 0.0366(17) Uani 1 2 d S T P . .
Rb1 Rb 0.500000 0.2528(5) 0.1500(7) 0.0957(15) Uani 1 2 d S T P . .
O1 O 0.500000 0.751(3) 0.5633(14) 0.043(5) Uani 1 2 d DS T P . .
H7 H 0.537(4) 0.861(7) 0.576(14) 0.08(7) Uiso 1 1 d D . . . .
H2 H 0.500000 0.804(15) 0.488(3) 0.117 Uiso 1 2 d DS U P . .
Rb02 Rb 0.500000 0.8088(2) 0.8380(5) 0.0305(6) Uani 1 2 d S T P . .
O2 O 0.500000 0.6815(17) 0.1681(11) 0.034(3) Uani 1 2 d DS T P . .
H10 H 0.4548(19) 0.773(5) 0.178(3) 0.09(7) Uiso 1 1 d D . . . .
H4 H 0.500000 0.753(8) 0.098(2) 0.138 Uiso 1 2 d DS U P . .
N2 N 0.1434(6) 0.5156(15) 0.3851(11) 0.020(2) Uani 1 1 d . . . . .
H3 H 0.296(5) 0.484(19) 0.553(3) 0.030 Uiso 1 1 d D U . . .
O3 O 0.6496(8) 1.0080(15) 0.7415(10) 0.031(3) Uani 1 1 d . . . . .
N3 N 0.2708(7) 0.4626(16) 0.2890(10) 0.025(2) Uani 1 1 d D . . . .
H9 H 0.303(4) 0.492(14) 0.223(3) 0.02(4) Uiso 1 1 d D . . . .
N4 N 0.6426(9) 0.9741(18) 0.5521(13) 0.033(3) Uani 1 1 d . . . . .
O4 O 0.8891(6) 1.0593(15) 0.5411(10) 0.032(2) Uani 1 1 d . . . . .
O5 O 0.6488(7) 0.9301(14) 0.3534(12) 0.037(2) Uani 1 1 d . . . . .
N5 N 0.7700(8) 1.001(2) 0.4473(10) 0.029(3) Uani 1 1 d D . . . .
H5 H 0.796(5) 0.99(2) 0.375(3) 0.04(4) Uiso 1 1 d D . . . .
N6 N 0.7713(7) 1.0356(17) 0.6459(10) 0.030(3) Uani 1 1 d D . . . .
O6 O 0.3947(5) 0.4419(14) 0.3842(12) 0.037(3) Uani 1 1 d . . . . .
H6 H 0.790(7) 1.05(3) 0.722(3) 0.055 Uiso 1 1 d D U . . .
O7 O 0.1505(8) 0.4869(17) 0.1916(11) 0.036(3) Uani 1 1 d . . . . .
O8 O 0.1511(7) 0.5617(17) 0.5704(10) 0.032(2) Uani 1 1 d . . . . .
C00F C 0.6842(8) 1.0100(18) 0.6479(14) 0.020(3) Uani 1 1 d . . . . .
O9 O 0.500000 1.226(2) 0.8662(15) 0.036(4) Uani 1 2 d DS T P . .
H8 H 0.536(4) 1.339(7) 0.875(17) 0.08(8) Uiso 1 1 d D . . . .
H1 H 0.500000 1.114(7) 0.917(5) 0.04(6) Uiso 1 2 d DS . P . .
C00H C 0.1832(8) 0.524(2) 0.4775(15) 0.021(3) Uani 1 1 d . . . . .
C00L C 0.8173(10) 1.034(2) 0.5433(14) 0.024(3) Uani 1 1 d . . . . .
C00N C 0.3152(8) 0.465(2) 0.3825(14) 0.022(3) Uani 1 1 d . . . . .
C00O C 0.1865(9) 0.494(2) 0.2840(16) 0.025(3) Uani 1 1 d . . . . .
C00P C 0.6870(11) 0.966(2) 0.4485(15) 0.029(4) Uani 1 1 d . . . . .
 
loop_
 _atom_site_aniso_label
 _atom_site_aniso_U_11
 _atom_site_aniso_U_22
 _atom_site_aniso_U_33
 _atom_site_aniso_U_23
 _atom_site_aniso_U_13
 _atom_site_aniso_U_12
Rb01 0.0226(10) 0.0359(12) 0.0384(14) -0.0050(8) 0.000 0.000
N1 0.015(5) 0.030(6) 0.016(6) 0.000(4) -0.005(4) -0.007(6)
Na1 0.026(3) 0.047(4) 0.037(4) -0.009(4) 0.000 0.000
Rb1 0.0409(12) 0.0643(14) 0.182(5) -0.020(3) 0.000 0.000
O1 0.013(6) 0.035(6) 0.083(15) -0.003(10) 0.000 0.000
Rb02 0.0182(8) 0.0304(10) 0.0429(15) 0.0014(8) 0.000 0.000
O2 0.021(5) 0.051(7) 0.029(7) 0.007(6) 0.000 0.000
N2 0.015(5) 0.025(5) 0.020(6) -0.006(5) -0.008(5) 0.003(4)
O3 0.020(5) 0.051(7) 0.020(6) -0.007(5) -0.003(5) -0.002(4)
N3 0.019(6) 0.035(6) 0.021(6) 0.001(5) 0.002(5) 0.004(4)
N4 0.028(7) 0.046(7) 0.024(7) 0.008(6) -0.006(5) 0.002(5)
O4 0.022(5) 0.052(5) 0.022(5) 0.001(4) 0.008(4) -0.007(4)
O5 0.041(5) 0.046(5) 0.024(6) -0.009(5) -0.009(5) 0.003(4)
N5 0.026(7) 0.039(7) 0.023(7) -0.005(6) 0.004(5) -0.012(6)
N6 0.018(6) 0.052(7) 0.019(6) -0.005(7) 0.002(5) 0.004(5)
O6 0.014(4) 0.049(6) 0.047(7) -0.014(5) -0.001(4) 0.005(4)
O7 0.027(6) 0.059(8) 0.023(6) -0.003(6) -0.009(5) 0.007(5)
O8 0.024(5) 0.063(6) 0.009(4) 0.002(4) 0.000(4) 0.011(5)
C00F 0.018(6) 0.025(6) 0.016(6) -0.005(6) 0.014(6) -0.002(5)
O9 0.022(6) 0.042(8) 0.044(10) 0.000(8) 0.000 0.000
C00H 0.014(6) 0.022(6) 0.027(8) 0.000(5) 0.012(6) 0.001(5)
C00L 0.026(8) 0.019(6) 0.027(8) 0.005(6) 0.010(6) -0.001(5)
C00N 0.013(6) 0.032(7) 0.021(7) -0.008(6) 0.001(5) -0.001(5)
C00O 0.019(7) 0.027(6) 0.031(9) 0.000(7) 0.010(6) 0.005(5)
C00P 0.042(9) 0.027(7) 0.019(7) 0.002(6) 0.015(6) -0.002(6)
 
_geom_special_details
;
 All esds (except the esd in the dihedral angle between two l.s. planes)
 are estimated using the full covariance matrix.  The cell esds are taken
 into account individually in the estimation of esds in distances, angles
 and torsion angles; correlations between esds in cell parameters are only
 used when they are defined by crystal symmetry.  An approximate (isotropic)
 treatment of cell esds is used for estimating esds involving l.s. planes.
;
 
loop_
 _geom_bond_atom_site_label_1
 _geom_bond_atom_site_label_2
 _geom_bond_distance
 _geom_bond_site_symmetry_2
 _geom_bond_publ_flag
Rb01 O1 2.947(18) . ?
Rb01 O7 2.962(12) 3_565 ?
Rb01 O7 2.962(11) 2_565 ?
Rb01 O9 3.16(2) 1_545 ?
Rb01 O6 3.183(12) 4_655 ?
Rb01 O6 3.183(12) . ?
Rb01 N4 3.231(14) 4_645 ?
Rb01 N4 3.231(14) 1_545 ?
Rb01 O3 3.521(11) 4_645 ?
Rb01 O3 3.521(11) 1_545 ?
Rb01 C00F 3.593(14) 4_645 ?
Rb01 C00F 3.593(14) 1_545 ?
N1 C00N 1.364(18) . ?
N1 C00H 1.423(16) . ?
N1 H3 0.9500(14) . ?
Na1 O2 2.278(16) . ?
Na1 O1 2.39(2) . ?
Na1 O6 2.527(11) 4_655 ?
Na1 O6 2.527(11) . ?
Na1 O5 2.748(11) . ?
Na1 O5 2.748(11) 4_655 ?
Na1 Rb1 3.971(10) . ?
Na1 Rb1 4.275(11) 1_565 ?
Na1 H2 1.59(7) . ?
Na1 H10 2.28(4) . ?
Rb1 O2 2.835(12) . ?
Rb1 O8 2.872(11) 3_564 ?
Rb1 O8 2.872(11) 2_564 ?
Rb1 O4 3.006(11) 3_464 ?
Rb1 O4 3.006(11) 2_664 ?
Rb1 O9 3.34(2) 1_544 ?
Rb1 O6 3.461(12) 4_655 ?
Rb1 O6 3.461(12) . ?
Rb1 C00L 3.707(16) 3_464 ?
Rb1 C00L 3.707(16) 2_664 ?
O1 Rb02 3.25(2) . ?
O1 H7 0.9500(15) . ?
O1 H2 0.9500(14) . ?
Rb02 O9 2.768(15) . ?
Rb02 O3 2.961(12) 4_655 ?
Rb02 O3 2.961(12) . ?
Rb02 O4 3.101(10) 2_675 ?
Rb02 O4 3.101(10) 3_475 ?
Rb02 N2 3.189(10) 2_565 ?
Rb02 N2 3.189(10) 3_565 ?
Rb02 O7 3.548(12) 2_565 ?
Rb02 O7 3.548(12) 3_565 ?
Rb02 C00O 3.653(14) 2_565 ?
Rb02 C00O 3.653(14) 3_565 ?
Rb02 H7 3.15(17) . ?
Rb02 H1 2.22(6) . ?
O2 H10 0.9500(10) . ?
O2 H4 0.9500(14) . ?
N2 C00H 1.261(19) . ?
N2 C00O 1.382(19) . ?
O3 C00F 1.233(19) . ?
N3 C00N 1.310(19) . ?
N3 C00O 1.370(18) . ?
N3 H9 0.9500(14) . ?
N4 C00F 1.33(2) . ?
N4 C00P 1.41(2) . ?
O4 C00L 1.163(18) . ?
O5 C00P 1.30(2) . ?
N5 C00P 1.35(2) . ?
N5 C00L 1.38(2) . ?
N5 H5 0.9500(15) . ?
N6 C00F 1.408(17) . ?
N6 C00L 1.414(19) . ?
N6 H6 0.9500(15) . ?
O6 C00N 1.285(15) . ?
O7 C00O 1.23(2) . ?
O8 C00H 1.232(18) . ?
O9 H8 0.9500(18) . ?
O9 H1 0.9500(14) . ?
 
loop_
 _geom_angle_atom_site_label_1
 _geom_angle_atom_site_label_2
 _geom_angle_atom_site_label_3
 _geom_angle
 _geom_angle_site_symmetry_1
 _geom_angle_site_symmetry_3
 _geom_angle_publ_flag
O1 Rb01 O7 66.7(3) . 3_565 ?
O1 Rb01 O7 66.7(3) . 2_565 ?
O7 Rb01 O7 109.2(5) 3_565 2_565 ?
O1 Rb01 O9 108.7(5) . 1_545 ?
O7 Rb01 O9 74.1(3) 3_565 1_545 ?
O7 Rb01 O9 74.1(3) 2_565 1_545 ?
O1 Rb01 O6 66.8(3) . 4_655 ?
O7 Rb01 O6 74.3(3) 3_565 4_655 ?
O7 Rb01 O6 126.4(3) 2_565 4_655 ?
O9 Rb01 O6 146.8(2) 1_545 4_655 ?
O1 Rb01 O6 66.8(3) . . ?
O7 Rb01 O6 126.4(3) 3_565 . ?
O7 Rb01 O6 74.3(3) 2_565 . ?
O9 Rb01 O6 146.8(2) 1_545 . ?
O6 Rb01 O6 64.1(4) 4_655 . ?
O1 Rb01 N4 130.4(3) . 4_645 ?
O7 Rb01 N4 162.2(4) 3_565 4_645 ?
O7 Rb01 N4 78.3(3) 2_565 4_645 ?
O9 Rb01 N4 93.3(3) 1_545 4_645 ?
O6 Rb01 N4 114.9(3) 4_655 4_645 ?
O6 Rb01 N4 70.7(3) . 4_645 ?
O1 Rb01 N4 130.4(3) . 1_545 ?
O7 Rb01 N4 78.3(3) 3_565 1_545 ?
O7 Rb01 N4 162.2(4) 2_565 1_545 ?
O9 Rb01 N4 93.3(3) 1_545 1_545 ?
O6 Rb01 N4 70.7(3) 4_655 1_545 ?
O6 Rb01 N4 114.9(3) . 1_545 ?
N4 Rb01 N4 90.2(5) 4_645 1_545 ?
O1 Rb01 O3 128.9(3) . 4_645 ?
O7 Rb01 O3 130.1(4) 3_565 4_645 ?
O7 Rb01 O3 62.2(3) 2_565 4_645 ?
O9 Rb01 O3 56.1(3) 1_545 4_645 ?
O6 Rb01 O3 153.1(3) 4_655 4_645 ?
O6 Rb01 O3 99.7(3) . 4_645 ?
N4 Rb01 O3 38.4(3) 4_645 4_645 ?
N4 Rb01 O3 100.5(3) 1_545 4_645 ?
O1 Rb01 O3 128.9(3) . 1_545 ?
O7 Rb01 O3 62.2(3) 3_565 1_545 ?
O7 Rb01 O3 130.1(4) 2_565 1_545 ?
O9 Rb01 O3 56.1(3) 1_545 1_545 ?
O6 Rb01 O3 99.7(3) 4_655 1_545 ?
O6 Rb01 O3 153.1(3) . 1_545 ?
N4 Rb01 O3 100.5(3) 4_645 1_545 ?
N4 Rb01 O3 38.4(3) 1_545 1_545 ?
O3 Rb01 O3 85.9(4) 4_645 1_545 ?
O1 Rb01 C00F 124.40(19) . 4_645 ?
O7 Rb01 C00F 149.9(4) 3_565 4_645 ?
O7 Rb01 C00F 61.6(3) 2_565 4_645 ?
O9 Rb01 C00F 75.8(3) 1_545 4_645 ?
O6 Rb01 C00F 135.2(3) 4_655 4_645 ?
O6 Rb01 C00F 80.6(3) . 4_645 ?
N4 Rb01 C00F 21.6(3) 4_645 4_645 ?
N4 Rb01 C00F 103.6(3) 1_545 4_645 ?
O3 Rb01 C00F 19.9(3) 4_645 4_645 ?
O3 Rb01 C00F 100.4(3) 1_545 4_645 ?
O1 Rb01 C00F 124.40(19) . 1_545 ?
O7 Rb01 C00F 61.6(3) 3_565 1_545 ?
O7 Rb01 C00F 149.9(4) 2_565 1_545 ?
O9 Rb01 C00F 75.8(3) 1_545 1_545 ?
O6 Rb01 C00F 80.6(3) 4_655 1_545 ?
O6 Rb01 C00F 135.2(3) . 1_545 ?
N4 Rb01 C00F 103.6(3) 4_645 1_545 ?
N4 Rb01 C00F 21.6(3) 1_545 1_545 ?
O3 Rb01 C00F 100.4(3) 4_645 1_545 ?
O3 Rb01 C00F 19.9(3) 1_545 1_545 ?
C00F Rb01 C00F 110.7(4) 4_645 1_545 ?
C00N N1 C00H 120.9(13) . . ?
C00N N1 H3 122(5) . . ?
C00H N1 H3 116(5) . . ?
O2 Na1 O1 177.2(7) . . ?
O2 Na1 O6 91.1(4) . 4_655 ?
O1 Na1 O6 86.8(5) . 4_655 ?
O2 Na1 O6 91.1(4) . . ?
O1 Na1 O6 86.8(5) . . ?
O6 Na1 O6 83.9(5) 4_655 . ?
O2 Na1 O5 91.7(4) . . ?
O1 Na1 O5 89.7(4) . . ?
O6 Na1 O5 77.7(3) 4_655 . ?
O6 Na1 O5 161.4(4) . . ?
O2 Na1 O5 91.7(4) . 4_655 ?
O1 Na1 O5 89.7(4) . 4_655 ?
O6 Na1 O5 161.4(4) 4_655 4_655 ?
O6 Na1 O5 77.7(3) . 4_655 ?
O5 Na1 O5 120.6(5) . 4_655 ?
O2 Na1 Rb01 128.9(4) . . ?
O1 Na1 Rb01 48.3(5) . . ?
O6 Na1 Rb01 53.8(3) 4_655 . ?
O6 Na1 Rb01 53.8(3) . . ?
O5 Na1 Rb01 111.5(3) . . ?
O5 Na1 Rb01 111.5(3) 4_655 . ?
O2 Na1 Rb1 44.4(3) . . ?
O1 Na1 Rb1 132.7(6) . . ?
O6 Na1 Rb1 59.5(3) 4_655 . ?
O6 Na1 Rb1 59.5(3) . . ?
O5 Na1 Rb1 111.6(3) . . ?
O5 Na1 Rb1 111.6(3) 4_655 . ?
Rb01 Na1 Rb1 84.47(19) . . ?
O2 Na1 Rb1 61.7(4) . 1_565 ?
O1 Na1 Rb1 121.1(5) . 1_565 ?
O6 Na1 Rb1 131.6(3) 4_655 1_565 ?
O6 Na1 Rb1 131.6(3) . 1_565 ?
O5 Na1 Rb1 65.1(3) . 1_565 ?
O5 Na1 Rb1 65.1(3) 4_655 1_565 ?
Rb01 Na1 Rb1 169.4(3) . 1_565 ?
Rb1 Na1 Rb1 106.1(3) . 1_565 ?
O2 Na1 Rb01 133.3(4) . 1_565 ?
O1 Na1 Rb01 49.5(5) . 1_565 ?
O6 Na1 Rb01 121.9(3) 4_655 1_565 ?
O6 Na1 Rb01 121.9(3) . 1_565 ?
O5 Na1 Rb01 67.6(3) . 1_565 ?
O5 Na1 Rb01 67.6(3) 4_655 1_565 ?
Rb01 Na1 Rb01 97.79(19) . 1_565 ?
Rb1 Na1 Rb01 177.7(3) . 1_565 ?
Rb1 Na1 Rb01 71.62(13) 1_565 1_565 ?
O2 Na1 H2 168(3) . . ?
O1 Na1 H2 15(3) . . ?
O6 Na1 H2 98(2) 4_655 . ?
O6 Na1 H2 98(2) . . ?
O5 Na1 H2 82.2(15) . . ?
O5 Na1 H2 82.2(15) 4_655 . ?
Rb01 Na1 H2 63(3) . . ?
Rb1 Na1 H2 148(3) . . ?
Rb1 Na1 H2 106(3) 1_565 . ?
Rb01 Na1 H2 34(3) 1_565 . ?
O2 Na1 H10 24.0(3) . . ?
O1 Na1 H10 157.6(4) . . ?
O6 Na1 H10 114.8(6) 4_655 . ?
O6 Na1 H10 89.7(12) . . ?
O5 Na1 H10 100.2(11) . . ?
O5 Na1 H10 68.0(4) 4_655 . ?
Rb01 Na1 H10 140.5(11) . . ?
Rb1 Na1 H10 61.7(8) . . ?
Rb1 Na1 H10 48.9(11) 1_565 . ?
Rb01 Na1 H10 116.2(8) 1_565 . ?
H2 Na1 H10 147(2) . . ?
O2 Rb1 O8 66.4(3) . 3_564 ?
O2 Rb1 O8 66.4(3) . 2_564 ?
O8 Rb1 O8 115.2(5) 3_564 2_564 ?
O2 Rb1 O4 135.6(3) . 3_464 ?
O8 Rb1 O4 130.8(3) 3_564 3_464 ?
O8 Rb1 O4 69.7(3) 2_564 3_464 ?
O2 Rb1 O4 135.6(3) . 2_664 ?
O8 Rb1 O4 69.7(3) 3_564 2_664 ?
O8 Rb1 O4 130.8(3) 2_564 2_664 ?
O4 Rb1 O4 72.6(4) 3_464 2_664 ?
O2 Rb1 O9 97.4(4) . 1_544 ?
O8 Rb1 O9 72.4(3) 3_564 1_544 ?
O8 Rb1 O9 72.4(3) 2_564 1_544 ?
O4 Rb1 O9 62.5(3) 3_464 1_544 ?
O4 Rb1 O9 62.5(3) 2_664 1_544 ?
O2 Rb1 O6 65.2(3) . 4_655 ?
O8 Rb1 O6 72.1(3) 3_564 4_655 ?
O8 Rb1 O6 121.1(3) 2_564 4_655 ?
O4 Rb1 O6 150.9(4) 3_464 4_655 ?
O4 Rb1 O6 107.2(2) 2_664 4_655 ?
O9 Rb1 O6 144.4(2) 1_544 4_655 ?
O2 Rb1 O6 65.2(3) . . ?
O8 Rb1 O6 121.1(3) 3_564 . ?
O8 Rb1 O6 72.1(3) 2_564 . ?
O4 Rb1 O6 107.2(2) 3_464 . ?
O4 Rb1 O6 150.9(4) 2_664 . ?
O9 Rb1 O6 144.4(2) 1_544 . ?
O6 Rb1 O6 58.4(3) 4_655 . ?
O2 Rb1 C00L 122.3(3) . 3_464 ?
O8 Rb1 C00L 140.8(4) 3_564 3_464 ?
O8 Rb1 C00L 55.9(3) 2_564 3_464 ?
O4 Rb1 C00L 16.0(3) 3_464 3_464 ?
O4 Rb1 C00L 88.6(3) 2_664 3_464 ?
O9 Rb1 C00L 68.6(3) 1_544 3_464 ?
O6 Rb1 C00L 147.0(3) 4_655 3_464 ?
O6 Rb1 C00L 93.8(3) . 3_464 ?
O2 Rb1 C00L 122.3(3) . 2_664 ?
O8 Rb1 C00L 55.9(3) 3_564 2_664 ?
O8 Rb1 C00L 140.8(4) 2_564 2_664 ?
O4 Rb1 C00L 88.6(3) 3_464 2_664 ?
O4 Rb1 C00L 16.0(3) 2_664 2_664 ?
O9 Rb1 C00L 68.6(3) 1_544 2_664 ?
O6 Rb1 C00L 93.8(3) 4_655 2_664 ?
O6 Rb1 C00L 147.0(3) . 2_664 ?
C00L Rb1 C00L 104.5(4) 3_464 2_664 ?
O2 Rb1 Na1 34.2(3) . . ?
O8 Rb1 Na1 82.5(2) 3_564 . ?
O8 Rb1 Na1 82.5(2) 2_564 . ?
O4 Rb1 Na1 143.17(19) 3_464 . ?
O4 Rb1 Na1 143.17(19) 2_664 . ?
O9 Rb1 Na1 131.6(3) 1_544 . ?
O6 Rb1 Na1 39.01(19) 4_655 . ?
O6 Rb1 Na1 39.01(19) . . ?
C00L Rb1 Na1 127.6(2) 3_464 . ?
C00L Rb1 Na1 127.6(2) 2_664 . ?
O2 Rb1 Na1 140.3(4) . 1_545 ?
O8 Rb1 Na1 122.4(3) 3_564 1_545 ?
O8 Rb1 Na1 122.4(2) 2_564 1_545 ?
O4 Rb1 Na1 71.8(2) 3_464 1_545 ?
O4 Rb1 Na1 71.8(2) 2_664 1_545 ?
O9 Rb1 Na1 122.3(3) 1_544 1_545 ?
O6 Rb1 Na1 80.4(2) 4_655 1_545 ?
O6 Rb1 Na1 80.4(2) . 1_545 ?
C00L Rb1 Na1 77.2(3) 3_464 1_545 ?
C00L Rb1 Na1 77.2(3) 2_664 1_545 ?
Na1 Rb1 Na1 106.1(3) . 1_545 ?
Na1 O1 Rb01 94.5(6) . . ?
Na1 O1 Rb02 177.4(8) . . ?
Rb01 O1 Rb02 88.1(5) . . ?
Na1 O1 H7 102(10) . . ?
Rb01 O1 H7 137(6) . . ?
Rb02 O1 H7 76(10) . . ?
Na1 O1 H2 26(6) . . ?
Rb01 O1 H2 120(7) . . ?
Rb02 O1 H2 151(7) . . ?
H7 O1 H2 82(10) . . ?
O9 Rb02 O3 66.8(3) . 4_655 ?
O9 Rb02 O3 66.8(3) . . ?
O3 Rb02 O3 108.3(4) 4_655 . ?
O9 Rb02 O4 68.3(4) . 2_675 ?
O3 Rb02 O4 129.4(3) 4_655 2_675 ?
O3 Rb02 O4 72.8(3) . 2_675 ?
O9 Rb02 O4 68.3(4) . 3_475 ?
O3 Rb02 O4 72.8(3) 4_655 3_475 ?
O3 Rb02 O4 129.4(3) . 3_475 ?
O4 Rb02 O4 70.1(4) 2_675 3_475 ?
O9 Rb02 N2 130.2(2) . 2_565 ?
O3 Rb02 N2 77.2(3) 4_655 2_565 ?
O3 Rb02 N2 161.5(3) . 2_565 ?
O4 Rb02 N2 118.0(3) 2_675 2_565 ?
O4 Rb02 N2 68.9(3) 3_475 2_565 ?
O9 Rb02 N2 130.2(2) . 3_565 ?
O3 Rb02 N2 161.5(3) 4_655 3_565 ?
O3 Rb02 N2 77.2(3) . 3_565 ?
O4 Rb02 N2 68.9(3) 2_675 3_565 ?
O4 Rb02 N2 118.0(3) 3_475 3_565 ?
N2 Rb02 N2 92.3(4) 2_565 3_565 ?
O9 Rb02 O1 103.7(5) . . ?
O3 Rb02 O1 70.9(3) 4_655 . ?
O3 Rb02 O1 70.9(3) . . ?
O4 Rb02 O1 142.9(2) 2_675 . ?
O4 Rb02 O1 142.9(2) 3_475 . ?
N2 Rb02 O1 95.3(3) 2_565 . ?
N2 Rb02 O1 95.3(3) 3_565 . ?
O9 Rb02 O7 127.1(3) . 2_565 ?
O3 Rb02 O7 60.4(3) 4_655 2_565 ?
O3 Rb02 O7 127.6(4) . 2_565 ?
O4 Rb02 O7 156.6(3) 2_675 2_565 ?
O4 Rb02 O7 97.8(3) 3_475 2_565 ?
N2 Rb02 O7 39.2(3) 2_565 2_565 ?
N2 Rb02 O7 101.9(3) 3_565 2_565 ?
O1 Rb02 O7 56.9(3) . 2_565 ?
O9 Rb02 O7 127.1(3) . 3_565 ?
O3 Rb02 O7 127.6(4) 4_655 3_565 ?
O3 Rb02 O7 60.4(3) . 3_565 ?
O4 Rb02 O7 97.8(3) 2_675 3_565 ?
O4 Rb02 O7 156.6(3) 3_475 3_565 ?
N2 Rb02 O7 101.9(3) 2_565 3_565 ?
N2 Rb02 O7 39.2(3) 3_565 3_565 ?
O1 Rb02 O7 56.9(3) . 3_565 ?
O7 Rb02 O7 85.8(4) 2_565 3_565 ?
O9 Rb02 C00O 124.3(2) . 2_565 ?
O3 Rb02 C00O 60.8(3) 4_655 2_565 ?
O3 Rb02 C00O 147.1(4) . 2_565 ?
O4 Rb02 C00O 139.2(4) 2_675 2_565 ?
O4 Rb02 C00O 79.5(3) 3_475 2_565 ?
N2 Rb02 C00O 22.0(3) 2_565 2_565 ?
N2 Rb02 C00O 104.7(3) 3_565 2_565 ?
O1 Rb02 C00O 76.3(3) . 2_565 ?
O7 Rb02 C00O 19.6(4) 2_565 2_565 ?
O7 Rb02 C00O 100.0(3) 3_565 2_565 ?
O9 Rb02 C00O 124.3(2) . 3_565 ?
O3 Rb02 C00O 147.1(4) 4_655 3_565 ?
O3 Rb02 C00O 60.8(3) . 3_565 ?
O4 Rb02 C00O 79.5(3) 2_675 3_565 ?
O4 Rb02 C00O 139.2(3) 3_475 3_565 ?
N2 Rb02 C00O 104.7(3) 2_565 3_565 ?
N2 Rb02 C00O 22.0(3) 3_565 3_565 ?
O1 Rb02 C00O 76.3(3) . 3_565 ?
O7 Rb02 C00O 100.0(3) 2_565 3_565 ?
O7 Rb02 C00O 19.6(4) 3_565 3_565 ?
C00O Rb02 C00O 110.0(4) 2_565 3_565 ?
O9 Rb02 H7 90.5(9) . . ?
O3 Rb02 H7 74.4(13) 4_655 . ?
O3 Rb02 H7 54.9(6) . . ?
O4 Rb02 H7 127.8(6) 2_675 . ?
O4 Rb02 H7 145.9(13) 3_475 . ?
N2 Rb02 H7 112.2(4) 2_565 . ?
N2 Rb02 H7 96.1(13) 3_565 . ?
O1 Rb02 H7 16.97(17) . . ?
O7 Rb02 H7 73.4(5) 2_565 . ?
O7 Rb02 H7 57.2(13) 3_565 . ?
C00O Rb02 H7 92.5(6) 2_565 . ?
C00O Rb02 H7 74.7(13) 3_565 . ?
O9 Rb02 H1 18.0(9) . . ?
O3 Rb02 H1 76.0(5) 4_655 . ?
O3 Rb02 H1 76.0(5) . . ?
O4 Rb02 H1 54.7(7) 2_675 . ?
O4 Rb02 H1 54.7(7) 3_475 . ?
N2 Rb02 H1 122.4(5) 2_565 . ?
N2 Rb02 H1 122.4(5) 3_565 . ?
O1 Rb02 H1 121.6(9) . . ?
O7 Rb02 H1 134.6(3) 2_565 . ?
O7 Rb02 H1 134.6(3) 3_565 . ?
C00O Rb02 H1 124.7(2) 2_565 . ?
C00O Rb02 H1 124.7(2) 3_565 . ?
H7 Rb02 H1 108.1(12) . . ?
Na1 O2 Rb1 101.4(5) . . ?
Na1 O2 H10 78(3) . . ?
Rb1 O2 H10 130(3) . . ?
Na1 O2 H4 143(4) . . ?
Rb1 O2 H4 115(4) . . ?
H10 O2 H4 78.34(14) . . ?
C00H N2 C00O 119.4(11) . . ?
C00H N2 Rb02 123.1(10) . 2_564 ?
C00O N2 Rb02 98.2(8) . 2_564 ?
C00F O3 Rb02 135.4(9) . . ?
C00F O3 Rb01 83.3(9) . 1_565 ?
Rb02 O3 Rb01 82.9(3) . 1_565 ?
C00N N3 C00O 124.8(14) . . ?
C00N N3 H9 113(4) . . ?
C00O N3 H9 118(5) . . ?
C00F N4 C00P 119.0(14) . . ?
C00F N4 Rb01 94.7(9) . 1_565 ?
C00P N4 Rb01 122.5(10) . 1_565 ?
C00L O4 Rb1 118.6(10) . 2_665 ?
C00L O4 Rb02 128.7(11) . 2_674 ?
Rb1 O4 Rb02 100.3(3) 2_665 2_674 ?
C00P O5 Na1 118.3(10) . . ?
C00P N5 C00L 124.2(15) . . ?
C00P N5 H5 116(5) . . ?
C00L N5 H5 120(5) . . ?
C00F N6 C00L 122.1(14) . . ?
C00F N6 H6 108(7) . . ?
C00L N6 H6 130(7) . . ?
C00N O6 Na1 125.0(9) . . ?
C00N O6 Rb01 124.9(11) . . ?
Na1 O6 Rb01 86.4(3) . . ?
C00N O6 Rb1 121.0(10) . . ?
Na1 O6 Rb1 81.5(3) . . ?
Rb01 O6 Rb1 106.2(2) . . ?
C00O O7 Rb01 132.9(10) . 2_564 ?
C00O O7 Rb02 85.0(10) . 2_564 ?
Rb01 O7 Rb02 82.5(3) 2_564 2_564 ?
C00H O8 Rb1 136.6(9) . 2_565 ?
O3 C00F N4 121.9(13) . . ?
O3 C00F N6 117.6(14) . . ?
N4 C00F N6 120.4(14) . . ?
O3 C00F Rb01 76.8(8) . 1_565 ?
N4 C00F Rb01 63.7(8) . 1_565 ?
N6 C00F Rb01 138.4(9) . 1_565 ?
Rb02 O9 Rb01 93.1(5) . 1_565 ?
Rb02 O9 Rb1 100.0(5) . 1_566 ?
Rb01 O9 Rb1 166.9(5) 1_565 1_566 ?
Rb02 O9 H8 143(4) . . ?
Rb01 O9 H8 89(10) 1_565 . ?
Rb1 O9 H8 81(10) 1_566 . ?
Rb02 O9 H1 46(4) . . ?
Rb01 O9 H1 139(5) 1_565 . ?
Rb1 O9 H1 54(4) 1_566 . ?
H8 O9 H1 123(10) . . ?
O8 C00H N2 124.1(13) . . ?
O8 C00H N1 114.8(14) . . ?
N2 C00H N1 121.1(13) . . ?
O4 C00L N5 123.4(16) . . ?
O4 C00L N6 122.3(16) . . ?
N5 C00L N6 114.3(13) . . ?
O4 C00L Rb1 45.4(8) . 2_665 ?
N5 C00L Rb1 129.2(10) . 2_665 ?
N6 C00L Rb1 97.3(9) . 2_665 ?
O6 C00N N3 123.4(14) . . ?
O6 C00N N1 121.3(15) . . ?
N3 C00N N1 115.3(11) . . ?
O7 C00O N3 119.7(15) . . ?
O7 C00O N2 121.9(13) . . ?
N3 C00O N2 118.2(15) . . ?
O7 C00O Rb02 75.4(9) . 2_564 ?
N3 C00O Rb02 135.9(9) . 2_564 ?
N2 C00O Rb02 59.8(7) . 2_564 ?
O5 C00P N5 119.2(15) . . ?
O5 C00P N4 120.8(15) . . ?
N5 C00P N4 120.0(16) . . ?
 
_refine_diff_density_max    2.424
_refine_diff_density_min   -1.771
_refine_diff_density_rms    0.180

_shelx_res_file
;
TITL 2RbNa_0ma_b.res in Pmn2(1)
    2RbNa_0ma.res
    created by SHELXL-2018/3 at 16:58:54 on 12-Aug-2019
REM Old TITL 2RbNa_0ma in Pmn2(1)
REM SHELXT solution in Pmn2(1)
REM R1 0.156,  Rweak 0.006,  Alpha 0.020,  Orientation as input
REM Flack x =  0.476 ( 0.011 ) from Parsons' quotients
REM Formula found by SHELXT:  C20 N7 Na O14 Rb2
REM
CELL 0.71073 16.0426 6.5928 11.7470 90.000 90.000 90.000
ZERR   12.000   0.0024   0.0010   0.0016    0.000    0.000    0.000
LATT -1
SYMM 1/2-X, -Y, 1/2+Z
SYMM 1/2+X, -Y, 1/2+Z
SYMM -X, Y, Z
SFAC C H N NA O RB
UNIT 24 34 24 2 30 6
ACTA
TEMP 24.850
L.S. 10
BOND $H
LIST 4
TWIN
FMAP 2
PLAN 20
DFIX 0.95 0.001 N5 H5 N6 H6 N1 H3 O2 H4 O1 H2 O1 H7 N3 H9 O2 H10 O9 H1 O9 H8
DFIX 0.95 0.001 O2 H10
DFIX 1.2 0.001 H4 H10
WGHT    0.107300    3.649000
BASF   0.40971
FVAR       0.10143
RB01  6    0.500000    0.308704    0.601340    10.50000    0.02259    0.03594 =
         0.03836   -0.00497    0.00000    0.00000
N1    3    0.271316    0.498705    0.480195    11.00000    0.01475    0.03016 =
         0.01558   -0.00004   -0.00483   -0.00684
NA1   4    0.500000    0.723959    0.360529    10.50000    0.02577    0.04717 =
         0.03698   -0.00862    0.00000    0.00000
RB1   6    0.500000    0.252795    0.149960    10.50000    0.04093    0.06434 =
         0.18182   -0.02018    0.00000    0.00000
O1    5    0.500000    0.750523    0.563252    10.50000    0.01306    0.03480 =
         0.08262   -0.00339    0.00000    0.00000
H7    2    0.536961    0.860766    0.576069    11.00000    0.07806
H2    2    0.500000    0.803943    0.488141    10.50000   -1.50000
RB02  6    0.500000    0.808757    0.838032    10.50000    0.01817    0.03041 =
         0.04289    0.00137    0.00000    0.00000
O2    5    0.500000    0.681531    0.168090    10.50000    0.02060    0.05115 =
         0.02948    0.00687    0.00000    0.00000
H10   2    0.454804    0.772810    0.178367    11.00000    0.09167
H4    2    0.500000    0.752650    0.097756    10.50000   -1.50000
N2    3    0.143420    0.515614    0.385109    11.00000    0.01541    0.02496 =
         0.01967   -0.00626   -0.00821    0.00306
H3    2    0.295907    0.483588    0.553273    11.00000   -1.50000
O3    5    0.649553    1.007961    0.741533    11.00000    0.02042    0.05126 =
         0.02014   -0.00663   -0.00262   -0.00163
N3    3    0.270848    0.462591    0.288976    11.00000    0.01851    0.03515 =
         0.02057    0.00105    0.00223    0.00404
H9    2    0.302638    0.491936    0.222768    11.00000    0.01698
N4    3    0.642643    0.974070    0.552069    11.00000    0.02759    0.04635 =
         0.02375    0.00819   -0.00550    0.00210
O4    5    0.889062    1.059312    0.541096    11.00000    0.02217    0.05243 =
         0.02200    0.00053    0.00847   -0.00666
O5    5    0.648808    0.930116    0.353382    11.00000    0.04099    0.04596 =
         0.02441   -0.00893   -0.00870    0.00272
N5    3    0.769953    1.001004    0.447337    11.00000    0.02609    0.03930 =
         0.02276   -0.00543    0.00352   -0.01235
H5    2    0.795780    0.994885    0.374645    11.00000    0.03713
N6    3    0.771292    1.035567    0.645936    11.00000    0.01783    0.05201 =
         0.01943   -0.00465    0.00237    0.00416
O6    5    0.394711    0.441913    0.384188    11.00000    0.01399    0.04910 =
         0.04707   -0.01441   -0.00127    0.00533
H6    2    0.789611    1.052667    0.722243    11.00000   -1.50000
O7    5    0.150518    0.486851    0.191594    11.00000    0.02729    0.05920 =
         0.02299   -0.00308   -0.00901    0.00665
O8    5    0.151133    0.561700    0.570446    11.00000    0.02438    0.06264 =
         0.00874    0.00156   -0.00039    0.01120
C00F  1    0.684169    1.009983    0.647852    11.00000    0.01811    0.02545 =
         0.01593   -0.00475    0.01412   -0.00240
O9    5    0.500000    1.225574    0.866217    10.50000    0.02190    0.04172 =
         0.04384   -0.00046    0.00000    0.00000
H8    2    0.535789    1.339183    0.875486    11.00000    0.08410
H1    2    0.500000    1.113837    0.917283    10.50000    0.04085
C00H  1    0.183236    0.524391    0.477500    11.00000    0.01408    0.02240 =
         0.02668   -0.00001    0.01238    0.00132
C00L  1    0.817327    1.034212    0.543295    11.00000    0.02560    0.01927 =
         0.02693    0.00473    0.01043   -0.00066
C00N  1    0.315224    0.465327    0.382537    11.00000    0.01331    0.03232 =
         0.02083   -0.00845    0.00144   -0.00086
C00O  1    0.186498    0.494066    0.283957    11.00000    0.01911    0.02677 =
         0.03056    0.00019    0.01020    0.00479
C00P  1    0.687007    0.966017    0.448495    11.00000    0.04236    0.02721 =
         0.01853    0.00221    0.01508   -0.00165
HKLF 4




REM  2RbNa_0ma_b.res in Pmn2(1)
REM wR2 = 0.181202, GooF = S = 1.02912, Restrained GooF = 1.02658 for all data
REM R1 = 0.060058 for 2179 Fo > 4sig(Fo) and 0.084882 for all 2856 data
REM 239 parameters refined using 13 restraints

END

WGHT      0.1058      3.7049

REM Highest difference peak  2.424,  deepest hole -1.771,  1-sigma level  0.180
Q1    1   0.5000  0.7564  0.2740  10.50000  0.05    2.42
Q2    1   0.5000  0.1129  0.3232  10.50000  0.05    1.13
Q3    1   0.5000  0.6264  0.3532  10.50000  0.05    0.98
Q4    1   0.5000  0.7733  0.3854  10.50000  0.05    0.84
Q5    1   0.5000  0.3055  0.7228  10.50000  0.05    0.77
Q6    1   0.5000  0.7615  0.0365  10.50000  0.05    0.75
Q7    1   0.4653  0.6950  0.3658  11.00000  0.05    0.71
Q8    1   0.4823  0.7750  0.9365  11.00000  0.05    0.71
Q9    1   0.5000  0.6515  0.1059  10.50000  0.05    0.70
Q10   1   0.6271  0.9579  0.3621  11.00000  0.05    0.63
Q11   1   0.6459  0.9373  0.3815  11.00000  0.05    0.63
Q12   1   0.5000  0.8648  0.3781  10.50000  0.05    0.62
Q13   1   0.5000  0.7970  0.7079  10.50000  0.05    0.60
Q14   1   0.5000  0.1048  0.0977  10.50000  0.05    0.59
Q15   1   0.5000  0.5375  0.1198  10.50000  0.05    0.59
Q16   1   0.1421  0.4451  0.3986  11.00000  0.05    0.56
Q17   1   0.1633  0.4710  0.3794  11.00000  0.05    0.56
Q18   1   0.6593  1.0330  0.6126  11.00000  0.05    0.55
Q19   1   0.6605  1.0341  0.3367  11.00000  0.05    0.53
Q20   1   0.1317  0.4750  0.1733  11.00000  0.05    0.52
;
_shelx_res_checksum   42930

_shelx_hkl_file
;
   0   1   0    0.36    0.07
   0  -1   0    0.29    0.08
   0   2   0  265.58   14.34
   0  -2   0  297.49   14.37
   0  -3   0   -0.13    0.18
   0   3   0    0.16    0.18
   0   4   0  319.27   15.67
   0  -4   0  306.18   15.67
   0   5   0    2.29    0.41
   0  -5   0    1.82    0.42
   0  -6   0   13.91    1.04
   0   6   0   12.34    0.98
   0  -7   0   -0.15    0.48
   0   7   0   -0.16    0.45
   0  -1  -1   10.11    0.55
   0   1   1    9.74    0.55
   0   1  -1   10.02    0.52
   0   2  -1    0.64    0.18
   0  -2   1    1.12    0.15
   0   2   1    0.82    0.16
   0  -2  -1    0.66    0.18
   0  -3  -1    5.85    0.47
   0   3   1    4.90    0.45
   0   3  -1    5.60    0.42
   0  -3   1    4.40    0.42
   0  -4  -1  158.51    7.45
   0   4   1  147.48    7.44
   0  -4   1  138.66    7.41
   0   4  -1  142.95    7.41
   0  -5   1    9.13    0.76
   0  -5  -1    9.89    0.82
   0   5  -1    9.83    0.76
   0   5   1    9.65    0.80
   0  -6   1    0.86    0.45
   0   6   1    0.72    0.43
   0  -6  -1    0.41    0.44
   0   6  -1    1.31    0.43
   0   7   1    8.54    0.87
   0  -7  -1    8.48    0.86
   0   7  -1   10.62    0.90
   0  -7   1    8.86    0.85
   0   8  -1    2.28    0.62
   0  -8  -1    2.13    0.72
   0  -8   1    1.41    0.73
   0   0  -2    7.83    0.51
   0   0   2    6.03    0.48
   0  -1  -2   20.83    1.09
   0   1  -2   20.60    1.06
   0  -1   2   20.60    1.05
   0   1   2   20.68    1.09
   0  -2  -2   55.03    2.92
   0   2   2   57.11    2.93
   0  -2   2   53.97    2.88
   0   2  -2   62.20    2.92
   0  -3   2  205.66   10.32
   0   3   2  205.87   10.36
   0   3  -2  202.76   10.32
   0  -3  -2  210.31   10.37
   0  -4   2    2.24    0.33
   0   4  -2    2.21    0.31
   0  -4  -2    1.59    0.40
   0   4   2    2.18    0.41
   0  -5   2   13.86    0.90
   0   5   2   11.44    0.97
   0   5  -2   13.34    0.89
   0  -5  -2   13.89    0.99
   0  -6  -2    0.55    0.48
   0   6  -2    1.27    0.43
   0   6   2    0.68    0.43
   0   7  -2    6.56    0.70
   0  -7   2    6.08    0.71
   0  -7  -2    5.90    0.79
   0   7   2    5.43    0.76
   0   8  -2   -0.24    0.53
   0  -8   2    0.61    0.59
   0  -8  -2    0.47    0.59
   0   0  -3    0.14    0.14
   0   0   3   -0.10    0.12
   0   1  -3   26.45    1.36
   0  -1  -3   26.63    1.40
   0  -2  -3    0.95    0.24
   0   2   3    1.70    0.25
   0  -2   3    1.19    0.16
   0   2  -3    1.47    0.17
   0   3  -3    3.28    0.29
   0   3   3    3.17    0.37
   0  -3   3    3.62    0.31
   0  -3  -3    3.09    0.39
   0   4  -3   60.98    3.29
   0  -4  -3   66.83    3.39
   0   4   3   63.99    3.37
   0  -4   3   65.18    3.31
   0  -5  -3    3.86    0.58
   0  -5   3    4.20    0.47
   0   5   3    4.48    0.55
   0   5  -3    4.87    0.48
   0   6   3    1.11    0.42
   0  -6  -3    1.39    0.51
   0   6  -3    1.26    0.40
   0  -7   3   20.13    1.35
   0   7  -3   19.94    1.30
   0  -7  -3   18.37    1.43
   0  -8   3   -0.28    0.50
   0   8  -3    0.46    0.80
   0  -8  -3   -0.27    0.66
   0   0  -4  304.78   14.92
   0   0   4  281.88   14.90
   0  -1  -4    7.80    0.50
   0   1  -4    6.86    0.43
   0   2  -4  139.92    7.03
   0  -2   4  137.07    7.02
   0  -2  -4  144.94    7.10
   0   3  -4    4.16    0.34
   0  -3   4    3.49    0.31
   0  -3  -4    3.96    0.48
   0   3   4    4.04    0.42
   0   4   4    4.30    0.52
   0  -4  -4    4.37    0.55
   0  -4   4    4.45    0.39
   0   4  -4    3.58    0.37
   0   5   4    1.16    0.48
   0   5  -4    1.10    0.32
   0  -5   4    0.98    0.34
   0  -5  -4    1.00    0.48
   0   6  -4    1.04    0.40
   0  -6  -4    1.02    0.55
   0  -6   4    0.78    0.40
   0  -7  -4    1.64    0.64
   0   7  -4    1.08    0.45
   0  -7   4    0.47    0.47
   0  -8   4    8.63    0.82
   0  -8  -4    6.45    0.96
   0   0  -5   -0.04    0.21
   0  -1  -5    5.63    0.46
   0   2  -5   35.84    1.80
   0  -2  -5   33.30    1.88
   0  -3  -5    4.32    0.46
   0  -3   5    3.67    0.33
   0   3  -5    4.12    0.35
   0   4  -5   19.10    1.05
   0  -4  -5   16.76    1.20
   0  -4   5   19.13    1.05
   0  -5  -5    0.40    0.52
   0   5  -5    1.08    0.30
   0  -5   5    0.25    0.29
   0  -6  -5   10.62    0.90
   0   6  -5    7.74    0.73
   0  -6   5    8.73    0.75
   0  -7  -5    3.05    0.76
   0  -7   5    1.85    0.49
   0   7  -5    2.12    0.47
   0  -8   5    0.32    0.50
   0   0  -6   14.24    1.16
   0  -1  -6    8.32    0.60
   0  -2  -6   13.70    0.93
   0   2  -6   14.51    0.81
   0  -3  -6   43.57    2.41
   0   3  -6   44.54    2.27
   0   4  -6    1.54    0.26
   0  -4   6    1.90    0.26
   0  -4  -6    2.70    0.54
   0  -5   6    6.00    0.55
   0   5  -6    6.29    0.55
   0  -5  -6    6.42    0.71
   0   6  -6    1.90    0.39
   0  -6  -6    2.61    0.75
   0  -6   6    2.20    0.40
   0  -7  -6    4.08    0.80
   0   7  -6    4.76    0.53
   0  -7   6    3.78    0.53
   0  -8   6    0.26    0.52
   0   0  -7   -0.24    0.21
   0  -1  -7   30.39    1.67
   0   2  -7    2.02    0.26
   0  -2  -7    2.01    0.42
   0  -3  -7   24.80    1.56
   0   3  -7   26.53    1.39
   0  -4  -7    9.64    0.83
   0   4  -7    8.69    0.59
   0  -5  -7    3.58    0.73
   0   5  -7    3.47    0.36
   0  -6  -7    3.51    0.63
   0   6  -7    3.76    0.43
   0  -6   7    2.72    0.37
   0   7  -7    1.01    0.38
   0  -7   7    0.50    0.36
   0  -7  -7    0.58    0.76
   0   0  -8   18.37    1.08
   0  -1  -8    3.96    0.46
   0  -2  -8   25.62    1.47
   0   2  -8   24.39    1.35
   0  -3  -8    0.58    0.47
   0   3  -8    0.52    0.23
   0   4  -8    1.24    0.23
   0  -4  -8    1.12    0.45
   0   5  -8    6.58    0.51
   0  -5  -8    5.73    0.83
   0   6  -8    2.99    0.37
   0  -6  -8    2.49    0.75
   0  -7  -8    1.02    0.65
   0   0  -9   -0.14    0.28
   0  -1  -9    1.18    0.41
   0   1  -9    0.74    0.27
   0   2  -9   17.32    1.00
   0  -2  -9   16.23    1.15
   0  -3  -9    9.38    0.83
   0   3  -9    8.57    0.61
   0  -4  -9    5.25    0.71
   0   4  -9    4.48    0.40
   0  -5  -9   10.34    1.05
   0   5  -9   10.57    0.65
   0  -6  -9    6.43    0.94
   0  -7  -9    0.09    0.67
   0   0 -10   27.03    1.54
   0  -1 -10  136.05    6.83
   0   1 -10  131.23    6.76
   0   2 -10   12.37    0.83
   0  -2 -10   12.54    0.97
   0  -3 -10   12.76    1.08
   0   3 -10   12.27    0.78
   0   4 -10    6.18    0.45
   0  -4 -10    6.83    0.96
   0   5 -10   27.06    1.41
   0  -5 -10   28.26    1.88
   0  -6 -10   -0.33    0.70
   0   0 -11   -0.22    0.36
   0  -1 -11   14.32    1.09
   0   1 -11   16.01    0.98
   0   2 -11    1.11    0.34
   0   2 -11    0.98    0.28
   0  -2 -11    0.40    0.48
   0   3 -11    8.42    0.61
   0   3 -11    7.43    0.55
   0  -3 -11    7.63    0.82
   0  -4 -11    1.64    0.63
   0   4 -11    1.90    0.21
   0  -5 -11    1.07    0.64
   0  -6 -11    0.92    0.69
   0   0 -12    0.86    0.43
   0  -1 -12    0.19    0.45
   0   1 -12   -0.15    0.34
   0  -2 -12   31.00    1.79
   0   2 -12   27.45    1.57
   0   2 -12   28.38    1.62
   0   3 -12    1.21    0.32
   0   3 -12    0.92    0.26
   0  -3 -12    1.48    0.63
   0   4 -12    2.93    0.20
   0   4 -12    2.84    0.20
   0  -4 -12    2.22    0.75
   0  -5 -12    2.61    0.81
   0   0 -13    0.49    0.49
   0   1 -13   -0.21    0.36
   0   1 -13    0.16    0.40
   0  -1 -13    0.12    0.49
   0   2 -13    6.56    0.60
   0   2 -13    6.95    0.61
   0  -2 -13    6.87    0.79
   0   3 -13    0.55    0.27
   0  -3 -13   -0.47    0.66
   0  -4 -13    0.23    0.64
   0  -5 -13    0.16    0.73
   0   0 -14   -0.27    0.42
   0   1 -14    0.27    0.42
   0   1 -14   -0.60    0.36
   0  -1 -14    0.20    0.52
   0   2 -14    0.04    0.31
   0   2 -14    0.35    0.38
   0  -2 -14    0.83    0.57
   0   3 -14    4.14    0.38
   0  -3 -14    5.58    0.80
   0  -4 -14    0.52    0.70
   0   0 -15    0.59    0.49
   0  -1 -15    4.00    0.68
   0   1 -15    4.77    0.58
   0   1 -15    4.71    0.60
   0   2 -15    0.02    0.39
   0   2 -15   -0.11    0.32
   0  -2 -15   -0.20    0.57
  -1   1   0    2.48    0.18
   1  -1   0    3.08    0.19
   1   1   0    2.91    0.20
  -1   2   0  170.27    8.55
  -1  -3   0    3.71    0.37
  -1   3   0    4.05    0.37
   1   3   0    4.74    0.40
   1  -3   0    4.10    0.37
   1   4   0    5.06    0.49
  -1  -4   0    4.62    0.50
  -1   4   0    5.19    0.48
   1  -4   0    4.86    0.46
   1   5   0    1.98    0.44
  -1   5   0    2.61    0.43
   1  -5   0    2.31    0.44
  -1  -5   0    2.66    0.44
   1  -6   0   27.93    1.68
  -1   6   0   26.70    1.64
  -1  -6   0   29.09    1.69
   1   6   0   27.08    1.67
   1  -7   0    1.02    0.55
   1   7   0    0.70    0.52
  -1  -7   0    1.16    0.56
   1   8   0    1.38    0.61
  -1  -8   0    0.52    0.75
   1   1  -1    6.25    0.37
  -1   1  -1    6.12    0.34
   1  -1  -1    6.58    0.37
  -1  -1   1    6.48    0.37
  -1   2   1    1.61    0.21
   1   2  -1    1.13    0.19
   1  -2   1    1.57    0.17
  -1  -2  -1    1.22    0.19
   1   2   1    1.40    0.22
  -1   2  -1    1.02    0.15
   1  -2  -1    1.09    0.20
  -1  -2   1    1.56    0.19
  -1  -3  -1   46.20    2.49
   1  -3   1   47.15    2.46
   1   3  -1   48.90    2.47
  -1   3   1   46.40    2.48
  -1   3  -1   47.17    2.46
   1  -3  -1   47.79    2.48
  -1  -3   1   47.61    2.47
   1   3   1   49.63    2.50
   1   4  -1    0.44    0.28
   1  -4   1    0.50    0.28
  -1  -4  -1    0.76    0.27
  -1   4   1    0.72    0.30
   1  -4  -1    0.68    0.34
  -1  -4   1    0.65    0.29
  -1   4  -1    0.76    0.27
   1   4   1    0.56    0.32
   1   5  -1   15.73    1.06
  -1   5   1   16.13    1.07
   1  -5   1   15.90    1.04
  -1  -5  -1   16.72    1.11
   1  -5  -1   16.45    1.10
   1   5   1   15.59    1.09
  -1   5  -1   17.30    1.04
  -1  -5   1   15.40    1.07
   1   6  -1   22.64    1.40
  -1  -6  -1   22.52    1.45
  -1   6   1   22.22    1.40
   1  -6   1   20.93    1.49
   1   6   1   21.86    1.43
  -1  -6   1   23.22    1.42
   1  -6  -1   21.75    1.41
  -1   6  -1   22.25    1.37
  -1  -7  -1    4.23    0.70
   1   7  -1    4.78    0.63
   1  -7   1    4.53    0.64
  -1  -7   1    3.88    0.65
  -1   7  -1    3.44    0.59
   1   7   1    3.62    0.64
   1  -7  -1    2.96    0.65
  -1  -8  -1    2.24    0.71
   1   8  -1    2.16    0.64
   1  -8   1    2.03    0.64
  -1  -8   1    2.92    1.19
   1  -8  -1    1.83    0.66
   1   8   1    3.09    0.65
   1   0   2    0.00    0.03
  -1   0  -2    0.07    0.06
  -1   1   2  183.23    9.13
   1   1  -2  174.54    9.03
  -1  -1  -2  177.85    9.11
   1  -1   2  180.12    8.83
   1  -1  -2  170.99    9.10
   1   1   2  177.86    9.11
  -1   1  -2  174.42    8.85
  -1  -1   2  174.36    9.02
   1  -2   2    9.61    0.57
  -1  -2  -2   10.18    0.65
  -1   2   2   10.95    0.63
   1   2  -2   10.43    0.60
   1   2   2   10.97    0.66
  -1  -2   2   10.68    0.61
   1  -2  -2   11.34    0.71
  -1   2  -2   10.36    0.57
   1  -3   2   64.25    3.24
   1   3  -2   61.50    3.26
  -1  -3  -2   65.29    3.30
  -1   3   2   64.32    3.29
   1  -3  -2   64.60    3.29
   1   3   2   60.92    3.29
  -1  -3   2   64.55    3.26
  -1   3  -2   63.58    3.24
   1   4  -2    7.73    0.62
   1  -4   2    7.76    0.61
  -1   4   2    9.34    0.71
  -1  -4  -2    8.31    0.70
   1   4   2    9.48    0.73
   1  -4  -2    8.05    0.71
  -1  -4   2    8.91    0.65
  -1   4  -2    8.86    0.60
  -1  -5  -2    2.49    0.47
   1   5  -2    2.23    0.42
  -1   5   2    3.04    0.46
   1  -5   2    3.32    0.43
   1   5   2    3.83    0.54
  -1  -5   2    3.16    0.46
  -1   5  -2    3.07    0.42
   1  -5  -2    3.24    0.52
  -1  -6  -2    1.40    0.48
  -1   6   2    0.84    0.43
   1  -6   2    0.95    0.56
   1   6  -2    1.35    0.44
  -1   6  -2    0.76    0.40
   1  -6  -2    0.99    0.52
  -1  -6   2    1.06    0.45
   1   6   2    0.83    0.44
   1  -7   2    3.04    0.57
  -1  -7  -2    2.90    0.61
   1   7  -2    2.80    0.58
   1   7   2    3.27    0.65
  -1   7  -2    2.85    0.54
  -1  -7   2    3.36    0.60
   1  -7  -2    3.35    0.63
   1  -8   2    0.67    0.57
  -1  -8  -2    0.32    0.61
   1   8  -2    1.06    0.56
  -1  -8   2    0.54    0.67
   1   8   2    0.18    0.63
   1  -8  -2    0.37    0.65
  -1   0  -3   11.71    0.63
  -1  -1  -3    5.31    0.39
   1   1  -3    5.28    0.35
  -1   1  -3    5.86    0.30
   1   1   3    5.47    0.39
   1   2  -3  157.16    8.29
   1  -2   3  161.42    8.26
   1   2   3  164.73    8.34
  -1  -2   3  162.71    8.29
   1  -2  -3  183.39    8.35
   1   3  -3   30.43    1.66
  -1  -3  -3   30.93    1.71
   1  -3   3   31.03    1.63
  -1  -3   3   31.14    1.67
   1  -3  -3   31.75    1.73
  -1   3  -3   32.08    1.63
   1   3   3   32.34    1.73
  -1  -4  -3    4.93    0.54
   1   4  -3    2.99    0.36
   1  -4   3    2.03    0.31
  -1   4   3    3.75    0.46
   1   4   3    2.95    0.49
   1  -4  -3    2.97    0.46
  -1  -4   3    3.38    0.38
  -1   4  -3    2.75    0.33
   1  -5   3   20.53    1.24
   1   5  -3   21.45    1.27
  -1  -5  -3   20.66    1.38
   1  -5  -3   20.43    1.37
  -1  -5   3   22.94    1.29
  -1   5  -3   20.31    1.24
   1   5   3   22.25    1.38
  -1  -6  -3    3.63    0.66
   1  -6   3    4.02    0.50
   1   6  -3    3.33    0.52
   1  -6  -3    3.27    0.60
  -1   6  -3    4.29    0.49
   1   6   3    4.10    0.62
  -1  -6   3    3.10    0.52
  -1  -7  -3    3.04    0.68
   1   7  -3    2.97    0.56
   1  -7   3    1.97    0.52
   1   7   3    2.35    0.67
   1  -7  -3    2.40    0.65
  -1  -7   3    2.01    0.54
  -1   7  -3    2.39    0.51
   1  -8   3    1.29    0.54
  -1  -8  -3   -0.27    0.60
   1   8  -3    0.41    0.53
   1  -8  -3    0.44    0.68
  -1  -8   3    0.75    0.57
  -1   0  -4    0.14    0.12
  -1  -1  -4   31.15    1.63
   1   1  -4   29.78    1.60
   1   1   4   30.53    1.63
   1  -1  -4   32.26    1.63
   1   2  -4   77.12    3.98
  -1  -2  -4   76.46    4.03
  -1  -2   4   79.00    3.98
   1  -2  -4   77.59    4.04
   1   2   4   80.85    4.04
  -1   2  -4   81.23    3.95
   1  -3   4    4.17    0.32
   1   3  -4    4.44    0.36
  -1  -3  -4    3.34    0.47
  -1   3  -4    3.94    0.31
  -1  -3   4    4.30    0.36
   1  -3  -4    3.41    0.42
   1   3   4    3.78    0.44
   1  -4   4   22.50    1.22
   1   4  -4   21.91    1.25
  -1  -4  -4   21.43    1.32
   1  -4  -4   23.60    1.38
  -1  -4   4   20.84    1.26
  -1   4  -4   22.87    1.22
   1   4   4   22.64    1.38
  -1  -5  -4    8.51    0.80
   1   5  -4    8.81    0.70
   1  -5   4    8.28    0.66
  -1   5  -4    8.45    0.65
   1  -5  -4    8.11    0.79
  -1  -5   4    9.03    0.72
   1   5   4    7.63    0.79
  -1  -6  -4   17.18    1.26
   1   6  -4   15.38    1.06
   1  -6   4   14.90    1.03
  -1  -6   4   14.46    1.09
   1   6   4   15.29    1.24
   1  -6  -4   16.86    1.22
  -1   6  -4   15.51    1.02
   1  -7   4    0.12    0.43
   1   7  -4    0.03    0.44
  -1  -7  -4    0.64    0.65
  -1   7  -4    0.47    0.42
   1   7   4    0.01    0.59
   1  -7  -4    0.45    0.59
  -1  -7   4   -0.01    0.46
  -1  -8  -4   -0.30    0.65
   1  -8   4    0.07    0.52
   1   8  -4    0.61    0.52
   1  -8  -4    0.51    0.76
  -1  -8   4    0.08    0.52
  -1   0  -5   51.39    2.63
  -1  -1  -5    1.22    0.25
   1   1  -5    1.08    0.21
   1  -1  -5    1.09    0.26
  -1  -2  -5   27.52    1.50
   1   2  -5   27.21    1.45
   1  -2  -5   27.19    1.53
  -1   2  -5   27.42    1.39
   1   2   5   26.58    1.52
   1   3  -5   32.05    1.67
  -1  -3  -5   30.22    1.77
  -1  -3   5   31.18    1.66
   1  -3  -5   30.99    1.77
   1   3   5   33.60    1.78
  -1   3  -5   30.73    1.61
   1  -4   5    2.54    0.28
  -1  -4  -5    2.40    0.43
   1   4  -5    3.01    0.35
   1  -4  -5    2.14    0.49
  -1   4  -5    2.58    0.28
  -1  -4   5    2.42    0.33
   1   4   5    2.73    0.51
   1   5  -5    9.27    0.72
   1  -5   5    9.23    0.68
  -1  -5  -5   10.11    0.91
  -1   5  -5   10.26    0.67
  -1  -5   5    9.73    0.74
   1  -5  -5    9.98    0.89
   1   5   5    8.29    0.87
   1   6  -5    5.13    0.54
  -1  -6  -5    5.06    0.80
   1  -6   5    5.03    0.50
  -1  -6   5    4.91    0.64
  -1   6  -5    3.88    0.47
   1   6   5    4.24    0.72
   1  -6  -5    4.13    0.73
  -1  -7  -5    1.19    0.64
   1   7  -5    1.13    0.44
   1  -7   5    0.42    0.41
   1  -7  -5    1.84    0.60
  -1  -7   5    1.06    0.47
   1  -8   5    4.85    0.61
   1   8  -5    4.18    0.64
  -1  -8   5    5.45    0.69
  -1   0  -6   -0.12    0.18
  -1  -1  -6   75.32    3.90
   1  -1  -6   76.84    3.91
  -1  -2  -6    0.38    0.33
   1   2  -6    0.96    0.23
   1  -2  -6    0.48    0.34
  -1   2  -6    0.80    0.15
   1   3  -6    4.00    0.38
  -1  -3  -6    3.27    0.47
   1  -3  -6    4.74    0.54
  -1   3  -6    4.09    0.30
  -1  -4  -6   16.10    1.16
   1   4  -6   15.64    0.94
   1   4   6   16.00    1.07
  -1  -4   6   15.43    0.93
  -1   4  -6   15.99    0.88
   1  -4  -6   15.73    1.14
   1   5  -6    3.03    0.40
   1  -5   6    2.22    0.30
  -1  -5   6    2.10    0.38
   1  -5  -6    2.75    0.58
  -1   5  -6    2.69    0.32
   1  -6   6    0.37    0.30
  -1  -6  -6    0.06    0.51
   1   6  -6    0.39    0.35
  -1  -6   6   -0.03    0.43
   1  -6  -6   -0.15    0.56
  -1   6  -6    0.84    0.57
  -1  -7  -6    6.74    0.88
   1  -7   6    7.19    0.63
   1   7  -6    8.23    0.69
  -1  -7   6    6.71    0.68
   1  -7  -6    6.28    0.94
   1  -8   6    0.84    0.48
   1   8  -6    0.81    0.47
  -1  -8   6    0.50    0.56
  -1   0  -7   15.73    0.92
  -1  -1  -7    0.67    0.27
  -1   1  -7    0.40    0.18
   1  -1  -7    0.44    0.27
   1   2  -7   16.85    1.00
  -1  -2  -7   16.40    1.10
   1  -2  -7   17.28    1.07
  -1   2  -7   18.65    0.96
   1   3  -7   36.01    1.98
  -1  -3  -7   36.90    2.10
   1  -3  -7   38.71    2.12
  -1   3  -7   38.16    1.91
  -1  -4  -7    2.28    0.50
   1   4  -7    1.55    0.31
  -1   4  -7    1.81    0.21
   1  -4  -7    0.55    0.48
  -1  -5  -7   14.14    1.18
   1   5  -7   10.97    0.79
  -1  -5   7   11.45    0.77
   1  -5  -7   10.62    0.95
  -1   5  -7   11.68    0.71
   1   6  -7    1.23    0.37
  -1  -6  -7    1.80    0.68
   1  -6   7    0.27    0.24
   1  -6  -7    0.50    0.66
  -1  -6   7    0.75    0.62
  -1   6  -7    1.41    0.48
   1  -7   7    0.69    0.31
   1   7  -7    0.36    0.41
   1  -7  -7    0.17    0.60
  -1  -7   7    0.52    0.40
  -1   0  -8   -0.23    0.24
  -1  -1  -8    7.73    0.66
   1  -1  -8    8.88    0.69
  -1   1  -8    8.26    0.56
   1   2  -8   12.59    0.79
  -1  -2  -8   12.34    0.91
   1  -2  -8   11.69    0.93
  -1   2  -8   12.19    0.73
   1   3  -8    0.91    0.28
  -1  -3  -8    1.44    0.46
  -1   3  -8    1.00    0.17
   1  -3  -8    0.98    0.49
  -1  -4  -8   20.41    1.40
   1   4  -8   22.00    1.26
   1  -4  -8   20.97    1.48
  -1   4  -8   23.44    1.16
  -1  -5  -8    0.62    0.53
   1   5  -8    0.88    0.30
  -1   5  -8    0.90    0.20
   1  -5  -8    1.47    0.58
  -1  -6  -8    2.56    0.73
   1   6  -8    2.99    0.40
   1  -6  -8    2.46    0.78
   1   7  -8    0.97    0.39
  -1  -7  -8    1.29    0.78
   1  -7  -8    1.45    0.74
   1   0  -9   46.23    2.50
  -1   0  -9   47.36    2.48
  -1  -1  -9    0.24    0.36
  -1   1  -9    0.58    0.24
   1  -1  -9    0.51    0.39
   1   2  -9   15.28    0.96
  -1  -2  -9   15.65    1.07
  -1   2  -9   16.35    0.91
   1  -2  -9   15.42    1.09
  -1   2  -9   15.29    0.88
  -1  -3  -9    2.44    0.50
   1   3  -9    2.13    0.35
  -1   3  -9    2.17    0.23
   1  -3  -9    2.45    0.53
   1   4  -9    0.31    0.28
  -1  -4  -9    0.45    0.44
  -1   4  -9    0.19    0.10
   1  -4  -9   -0.27    0.55
   1   5  -9    5.37    0.46
  -1  -5  -9    4.11    0.69
   1  -5  -9    5.96    0.74
  -1  -6  -9   -0.03    0.60
   1   6  -9    0.71    0.31
   1  -6  -9   -0.02    0.71
   1   7  -9    0.14    0.33
  -1  -7  -9    0.24    0.70
   1  -7  -9    0.14    0.78
   1   0 -10    0.17    0.33
  -1   0 -10   -0.08    0.31
  -1  -1 -10   21.76    1.34
   1  -1 -10   22.40    1.37
  -1   1 -10   21.80    1.25
  -1  -2 -10    0.91    0.46
   1   2 -10    0.70    0.32
  -1   2 -10    0.47    0.26
  -1   2 -10    0.45    0.23
   1  -2 -10    0.67    0.43
   1   3 -10    0.40    0.31
  -1  -3 -10    0.98    0.53
  -1   3 -10    0.34    0.18
   1  -3 -10    1.03    0.56
   1   4 -10    8.26    0.63
   1  -4 -10    8.49    0.91
  -1  -5 -10   -0.62    0.56
   1  -5 -10    0.24    0.60
  -1  -6 -10   -0.32    0.63
   1   6 -10    0.20    0.24
   1  -6 -10   -0.39    0.69
   1   0 -11    0.69    0.47
  -1   0 -11    0.44    0.36
   1   1 -11    6.54    0.57
  -1  -1 -11    5.71    0.64
   1  -1 -11    5.35    0.66
  -1   1 -11    6.62    0.55
   1   2 -11    0.14    0.34
  -1  -2 -11    0.65    0.45
  -1   2 -11    0.09    0.28
   1  -2 -11   -0.04    0.47
  -1   2 -11    0.23    0.24
   1   3 -11    3.39    0.43
  -1  -3 -11    2.55    0.63
  -1   3 -11    2.72    0.27
   1  -3 -11    2.04    0.56
   1   4 -11    0.25    0.30
  -1  -4 -11    0.19    0.63
   1  -4 -11    0.99    0.65
  -1  -5 -11    6.98    0.96
   1  -5 -11    7.48    0.97
  -1  -6 -11    0.37    0.76
   1  -6 -11    0.85    0.80
  -1   0 -12    0.11    0.38
   1   0 -12    0.15    0.41
   1   1 -12    0.49    0.38
   1   1 -12    0.83    0.42
  -1  -1 -12    0.13    0.44
   1  -1 -12    1.28    0.50
  -1   1 -12    0.64    0.32
   1   2 -12    0.90    0.39
   1   2 -12    1.26    0.34
  -1  -2 -12    2.08    0.57
  -1   2 -12    1.20    0.28
   1  -2 -12    0.65    0.56
  -1   2 -12    1.08    0.34
  -1  -3 -12    2.35    0.64
   1   3 -12    2.22    0.41
  -1   3 -12    1.91    0.21
   1  -3 -12    2.26    0.65
  -1   3 -12    1.77    0.23
  -1  -4 -12    7.62    0.86
   1   4 -12    6.94    0.63
   1  -4 -12    7.59    0.92
  -1  -5 -12    0.81    0.74
   1  -5 -12    1.07    0.68
  -1   0 -13    9.08    0.76
   1   0 -13    8.32    0.78
   1   1 -13    1.49    0.44
   1   1 -13    1.16    0.44
  -1  -1 -13    1.08    0.50
   1  -1 -13    0.72    0.51
  -1   1 -13    1.95    0.39
  -1  -2 -13    0.75    0.56
   1   2 -13    1.17    0.42
   1   2 -13    1.52    0.39
  -1   2 -13    1.81    0.32
   1  -2 -13    1.26    0.57
  -1   2 -13    1.25    0.37
   1   3 -13    0.96    0.37
   1   3 -13    1.08    0.31
  -1  -3 -13    1.50    0.62
  -1   3 -13    0.83    0.16
   1  -3 -13    0.97    0.64
  -1   3 -13    1.15    0.18
  -1  -4 -13    0.11    0.68
   1   4 -13    0.16    0.22
   1   4 -13    0.02    0.22
   1  -4 -13    0.47    0.72
  -1  -5 -13   -0.14    0.69
   1  -5 -13    0.77    0.89
  -1   0 -14   -0.18    0.42
   1   0 -14   -0.09    0.45
   1   1 -14    4.20    0.57
  -1  -1 -14    4.09    0.65
   1   1 -14    4.26    0.58
  -1   1 -14    2.84    0.51
   1  -1 -14    4.15    0.68
  -1   1 -14    4.80    0.52
   1   2 -14    0.53    0.37
   1   2 -14   -0.24    0.40
  -1  -2 -14    0.36    0.58
  -1   2 -14    0.41    0.29
   1  -2 -14    0.38    0.58
  -1   2 -14    0.79    0.35
  -1  -3 -14    0.55    0.62
   1   3 -14    0.33    0.30
   1   3 -14    0.14    0.36
   1  -3 -14    0.76    0.69
   1   4 -14    0.74    0.17
  -1  -4 -14    0.95    0.68
   1  -4 -14    0.22    0.70
  -1   0 -15    1.25    0.56
   1   0 -15    0.24    0.48
   1   1 -15    0.68    0.49
  -1  -1 -15    0.60    0.54
   1   1 -15    0.13    0.44
  -1   1 -15    0.50    0.39
   1  -1 -15    1.24    0.58
  -1   1 -15    0.93    0.43
   1   2 -15    0.33    0.35
   1   2 -15    0.19    0.43
  -1  -2 -15   -0.17    0.59
  -1   2 -15    0.09    0.47
  -1   2 -15   -0.16    0.34
   1  -2 -15   -0.04    0.58
  -2   0   0   21.50    1.10
  -2  -1   0    0.22    0.11
   2   1   0   -0.01    0.10
   2   3   0    1.28    0.27
  -2  -3   0    1.09    0.26
  -2   3   0    1.05    0.24
   2  -3   0    1.41    0.23
   2  -4   0    2.83    0.38
  -2   4   0    3.17    0.38
  -2  -4   0    2.13    0.40
   2   4   0    3.17    0.39
  -2  -5   0   -0.04    0.36
  -2   5   0    0.66    0.35
   2   5   0    0.04    0.33
   2  -5   0    0.24    0.36
  -2  -6   0    4.14    0.63
   2   6   0    4.67    0.63
   2  -6   0    4.34    0.59
   2  -7   0    0.96    0.51
   2   7   0   -0.22    0.46
  -2  -7   0    0.15    0.52
  -2  -8   0    4.56    0.79
   2   8   0    4.87    0.77
   2   0  -1   -0.02    0.08
  -2   0  -1    0.04    0.06
   2   0   1    0.01    0.06
  -2  -1  -1   12.70    0.71
   2   1  -1   12.87    0.70
   2   1   1   12.98    0.71
  -2  -1   1   13.18    0.71
  -2  -2  -1  104.85    5.39
   2   2  -1  109.41    5.39
   2  -2   1  105.73    5.35
  -2  -2   1  104.22    5.38
   2   2   1  109.16    5.40
   2  -2  -1  107.30    5.38
   2   3  -1    6.04    0.47
  -2  -3  -1    6.20    0.50
   2  -3   1    4.31    0.38
  -2  -3   1    4.71    0.43
   2   3   1    4.46    0.46
   2  -3  -1    5.68    0.47
  -2   3  -1    5.51    0.41
   2   4  -1   14.61    0.95
  -2  -4  -1   14.81    0.99
   2  -4   1   14.72    0.92
  -2  -4   1   14.76    0.96
   2  -4  -1   12.79    0.94
   2   4   1   16.94    0.98
  -2   4  -1   16.66    0.92
   2  -5   1   12.29    0.83
  -2  -5  -1   10.70    0.86
   2   5  -1   10.64    0.84
  -2  -5   1   10.21    0.86
  -2   5  -1    9.83    0.79
   2   5   1   10.84    0.88
   2  -5  -1   11.04    0.87
   2  -6   1   19.28    1.37
  -2  -6  -1   18.43    1.30
   2   6  -1   17.76    1.25
   2   6   1   19.31    1.29
  -2  -6   1   19.09    1.29
   2  -6  -1   18.41    1.27
   2  -7   1    6.82    0.74
   2   7  -1    6.74    0.78
  -2  -7  -1    6.63    0.78
   2   7   1    8.46    0.81
   2  -7  -1    8.19    0.80
  -2  -7   1    7.03    0.80
   2  -8   1    0.21    0.58
   2   8  -1    0.30    0.55
  -2  -8  -1   -0.22    0.60
   2  -8  -1    0.05    0.61
  -2  -8   1    0.06    0.71
   2   8   1    0.62    0.62
   2   0   2   38.61    1.95
   2   1  -2   76.68    4.01
  -2  -1  -2   83.25    4.02
  -2  -1   2   79.07    4.02
   2  -2   2    5.10    0.32
  -2  -2  -2    5.13    0.42
   2   2  -2    5.12    0.39
   2  -2  -2    5.56    0.39
   2   2   2    5.31    0.43
  -2  -3  -2   40.17    2.15
   2   3  -2   40.86    2.14
   2  -3   2   41.94    2.09
  -2   3  -2   40.81    2.09
  -2  -3   2   39.98    2.13
   2   3   2   39.52    2.17
   2  -3  -2   40.29    2.15
   2  -4   2    8.95    0.64
   2   4  -2    9.43    0.69
  -2  -4  -2    8.08    0.75
  -2   4  -2    9.70    0.63
   2  -4  -2    9.95    0.73
  -2  -4   2    9.43    0.69
   2   4   2    8.23    0.73
   2   5  -2   51.33    2.74
   2  -5   2   51.33    2.70
  -2  -5  -2   50.60    2.76
  -2   5  -2   50.81    2.70
  -2  -5   2   49.96    2.74
   2   5   2   51.93    2.78
   2  -5  -2   52.23    2.77
  -2  -6  -2    1.51    0.55
   2  -6   2    0.64    0.42
   2   6  -2    1.26    0.45
   2  -6  -2    0.19    0.49
  -2  -6   2    0.46    0.45
   2   6   2    0.27    0.43
   2   7  -2    2.23    0.57
   2  -7   2    2.10    0.55
  -2  -7  -2    2.34    0.66
  -2  -7   2    2.33    0.59
   2   7   2    2.15    0.58
   2  -7  -2    2.28    0.64
  -2  -8  -2    0.56    0.67
   2   8  -2    0.96    0.57
   2  -8   2    0.17    0.53
   2   8   2    0.67    0.58
   2  -8  -2    0.27    0.64
   2   0   3    0.13    0.09
  -2   0  -3    0.17    0.09
  -2  -1  -3   12.87    0.76
   2   1  -3   14.09    0.76
   2  -2   3   22.56    1.14
   2   2  -3   22.11    1.22
  -2  -2   3   23.70    1.22
   2   2   3   21.91    1.23
   2  -2  -3   22.08    1.25
  -2  -3  -3    3.28    0.38
   2  -3   3    3.31    0.29
   2   3  -3    2.50    0.33
  -2  -3   3    3.58    0.36
   2   3   3    2.92    0.36
   2  -3  -3    3.39    0.39
  -2   3  -3    3.10    0.28
   2  -4   3   15.81    0.92
   2   4  -3   16.58    0.98
  -2  -4  -3   16.90    1.09
   2  -4  -3   15.76    1.00
  -2   4  -3   15.56    0.91
  -2  -4   3   14.61    0.99
   2   4   3   16.04    1.06
   2  -5   3   26.63    1.46
   2   5  -3   25.28    1.50
  -2  -5  -3   26.09    1.60
   2   5   3   25.11    1.59
  -2  -5   3   26.58    1.52
  -2   5  -3   25.69    1.45
   2  -5  -3   25.02    1.58
  -2  -6  -3    4.41    0.69
   2  -6   3    5.58    0.55
   2   6  -3    4.99    0.59
   2   6   3    5.12    0.72
  -2  -6   3    4.91    0.61
   2  -6  -3    3.92    0.68
   2   7  -3    4.80    0.66
  -2  -7  -3    3.37    0.70
   2  -7   3    5.62    0.61
  -2  -7   3    4.61    0.66
   2  -7  -3    4.73    0.75
   2   7   3    3.74    0.70
   2   8  -3   -0.49    0.52
   2  -8   3   -0.58    0.48
  -2  -8  -3    0.20    0.64
   2  -8  -3   -0.87    0.60
   2   8   3    0.40    0.61
   2   0  -4  364.05   18.30
   2   0  -4  362.34   18.27
  -2   0  -4  348.60   18.10
   2   0   4  358.95   18.10
   2   1  -4   50.04    2.56
  -2  -1  -4   52.82    2.57
  -2   1  -4   49.26    2.50
   2   1   4   47.78    2.57
  -2  -2  -4   61.65    3.20
   2   2  -4   62.25    3.16
   2   2   4   62.89    3.20
  -2  -2   4   62.39    3.15
   2  -2  -4   59.40    3.20
   2   3  -4    0.48    0.24
   2  -3   4    0.28    0.14
  -2  -3  -4    0.13    0.32
   2   3   4    0.35    0.35
  -2  -3   4    0.37    0.22
  -2   3  -4    0.42    0.13
   2  -3  -4    0.47    0.29
   2   4  -4   22.47    1.19
  -2  -4  -4   19.67    1.30
   2  -4   4   20.01    1.11
   2   4   4   20.13    1.29
   2  -4  -4   19.10    1.26
  -2  -4   4   20.43    1.19
  -2   4  -4   19.99    1.11
   2  -5   4    4.09    0.44
  -2  -5  -4    5.52    0.66
   2   5  -4    6.09    0.56
  -2  -5   4    5.58    0.55
   2  -5  -4    4.71    0.64
   2   5   4    5.06    0.70
  -2   5  -4    5.29    0.46
   2  -6   4    8.01    0.72
   2   6  -4    9.53    0.78
  -2  -6  -4    8.30    0.84
  -2  -6   4    7.85    0.73
   2  -6  -4    7.93    0.85
   2   6   4    8.37    0.88
   2   7  -4    0.21    0.48
  -2  -7  -4   -0.67    0.53
   2  -7   4    0.96    0.43
   2  -7  -4   -0.16    0.62
  -2  -7   4    0.28    0.50
   2   7   4   -0.05    0.58
   2   8  -4    2.26    0.60
  -2  -8  -4    2.82    0.80
   2  -8   4    1.40    0.52
   2   8   4    2.25    0.69
   2  -8  -4    0.55    0.77
  -2   0  -5    0.17    0.15
  -2  -1  -5   12.85    0.82
   2   1  -5   13.33    0.81
  -2   1  -5   14.87    0.73
   2   1   5   13.69    0.83
  -2  -2  -5   28.94    1.68
   2   2  -5   29.81    1.63
   2   2   5   31.44    1.69
   2  -2  -5   32.26    1.70
  -2  -3  -5    0.22    0.36
   2   3  -5    0.65    0.26
   2   3   5    0.25    0.34
   2  -3  -5    0.58    0.30
  -2   3  -5    0.72    0.11
  -2  -3   5    0.50    0.24
  -2  -4  -5   19.82    1.36
   2  -4   5   21.37    1.13
   2   4  -5   22.30    1.24
   2   4   5   21.87    1.36
   2  -4  -5   19.36    1.34
  -2  -4   5   22.69    1.24
  -2   4  -5   20.46    1.13
   2  -5   5    0.24    0.24
   2   5  -5    0.93    0.36
  -2  -5  -5    0.98    0.52
   2   5   5    0.60    0.42
  -2  -5   5    0.42    0.36
  -2   5  -5    0.34    0.24
   2   6  -5    6.86    0.65
   2  -6   5    6.56    0.56
  -2  -6  -5    6.53    0.80
   2  -6  -5    7.26    0.81
   2   6   5    6.73    0.75
  -2  -6   5    7.01    0.68
   2  -7   5    0.61    0.39
  -2  -7  -5    1.14    0.64
   2   7  -5    1.04    0.49
   2   7   5    0.67    0.68
   2  -7  -5    1.22    0.70
  -2  -7   5    1.03    0.49
   2   8  -5    0.94    0.53
   2  -8   5    0.21    0.43
  -2   0  -6   13.70    0.79
   2   1  -6   10.40    0.67
  -2  -1  -6   10.00    0.68
  -2   1  -6   10.63    0.59
   2   2  -6   24.36    1.37
  -2  -2  -6   25.05    1.43
  -2   2  -6   24.07    1.26
   2   2   6   24.05    1.40
   2  -2  -6   26.63    1.43
  -2   2  -6   25.81    1.26
   2   3  -6   21.67    1.23
  -2  -3  -6   20.87    1.33
   2  -3  -6   21.24    1.30
  -2   3  -6   21.50    1.09
   2   3   6   22.77    1.32
   2   4  -6    4.00    0.42
  -2  -4  -6    3.06    0.59
   2   4   6    3.90    0.52
  -2  -4   6    3.19    0.39
   2  -4  -6    2.46    0.56
  -2   4  -6    3.18    0.28
   2   5  -6   22.00    1.26
   2  -5   6   19.77    1.12
  -2  -5   6   21.06    1.26
   2  -5  -6   21.96    1.46
   2   5   6   21.59    1.47
   2   6  -6    0.75    0.40
  -2  -6  -6    0.77    0.63
   2  -6   6    1.03    0.28
   2  -6  -6    1.11    0.66
   2   6   6    0.80    0.65
  -2  -6   6    0.99    0.41
   2  -7   6    0.55    0.35
   2   7  -6    1.14    0.46
  -2  -7  -6    1.75    0.75
   2  -7  -6    1.76    0.74
  -2  -7   6    0.88    0.48
   2   8  -6   -0.02    0.49
   2  -8   6    0.08    0.44
  -2   0  -7   -0.05    0.21
   2   1  -7   43.65    2.28
  -2  -1  -7   42.47    2.29
  -2   1  -7   43.32    2.21
  -2  -2  -7    3.48    0.48
   2   2  -7    3.71    0.40
   2  -2  -7    3.72    0.51
  -2   2  -7    3.73    0.28
  -2   2  -7    3.62    0.25
   2   3  -7    8.16    0.62
  -2  -3  -7    7.20    0.70
   2  -3  -7    6.51    0.69
  -2  -4  -7   11.76    0.99
   2   4  -7   11.84    0.81
   2   4   7   11.42    0.92
   2  -4  -7   11.62    1.03
   2   5  -7    0.66    0.36
  -2  -5  -7    1.24    0.53
   2  -5  -7    0.63    0.58
  -2  -5   7    0.81    0.34
  -2  -6  -7    0.55    0.51
   2   6  -7    0.17    0.36
   2  -6  -7    0.44    0.57
  -2  -6   7    0.30    0.37
   2   7  -7    3.07    0.52
  -2  -7  -7    3.98    0.86
   2  -7  -7    3.20    0.80
  -2  -7   7    3.92    0.54
  -2   0  -8   36.76    1.96
  -2  -1  -8    0.08    0.29
  -2   1  -8    0.23    0.19
   2  -1  -8    0.23    0.36
   2   2  -8   10.34    0.73
  -2  -2  -8   10.72    0.83
   2  -2  -8    9.41    0.85
  -2   2  -8   10.05    0.58
  -2   2  -8   10.84    0.60
  -2  -3  -8    5.60    0.63
   2   3  -8    5.95    0.53
   2  -3  -8    5.37    0.69
   2   4  -8   -0.13    0.32
  -2  -4  -8    0.88    0.48
   2  -4  -8    0.53    0.55
   2   5  -8    0.65    0.34
  -2  -5  -8    0.43    0.58
   2  -5  -8    0.84    0.63
   2   6  -8    3.48    0.47
  -2  -6  -8    4.36    0.83
   2  -6  -8    3.40    0.67
   2   7  -8    1.27    0.43
  -2  -7  -8    1.80    0.79
   2  -7  -8    0.75    0.79
  -2   0  -9   -0.19    0.25
   2   1  -9    2.93    0.41
   2  -1  -9    3.18    0.49
  -2   1  -9    2.66    0.30
   2   2  -9    7.09    0.58
  -2  -2  -9    6.06    0.65
   2  -2  -9    7.73    0.69
  -2   2  -9    6.37    0.47
  -2   2  -9    6.74    0.44
  -2  -3  -9    3.20    0.55
   2   3  -9    2.25    0.40
   2  -3  -9    2.60    0.50
  -2  -4  -9   13.00    1.12
   2   4  -9   13.78    0.92
   2   5  -9    0.57    0.34
  -2  -5  -9    0.06    0.63
   2  -5  -9   -0.08    0.64
   2   6  -9    2.53    0.41
  -2  -6  -9    0.90    0.77
   2  -6  -9    2.60    0.66
  -2  -7  -9    3.21    0.89
   2   7  -9    2.00    0.43
  -2   0 -10    6.22    0.55
   2   1 -10   13.59    0.91
  -2  -1 -10   12.29    0.90
  -2   1 -10   11.82    0.77
   2  -1 -10   11.28    0.94
  -2  -2 -10    7.16    0.68
   2   2 -10    6.25    0.57
   2  -2 -10    5.90    0.67
  -2   2 -10    6.08    0.44
  -2   2 -10    5.63    0.48
  -2  -3 -10   42.86    2.49
   2   3 -10   44.91    2.37
   2  -3 -10   43.86    2.53
  -2  -4 -10    1.27    0.54
   2  -4 -10    1.12    0.62
  -2  -5 -10   -1.02    0.61
   2   5 -10    0.00    0.32
   2  -5 -10    0.00    0.65
   2   6 -10    1.64    0.35
  -2  -6 -10    3.05    0.85
   2   0 -11   -0.53    0.36
  -2   0 -11    0.28    0.33
   2   1 -11   18.83    1.20
  -2  -1 -11   18.97    1.23
   2  -1 -11   17.42    1.25
  -2   1 -11   18.90    1.10
   2   2 -11    1.53    0.41
  -2  -2 -11    1.75    0.52
   2  -2 -11    1.63    0.52
  -2   2 -11    2.12    0.27
  -2   2 -11    2.53    0.32
  -2  -3 -11    2.30    0.62
   2   3 -11    2.28    0.43
   2  -3 -11    1.24    0.62
   2   4 -11    0.64    0.37
  -2  -4 -11    1.11    0.62
   2  -4 -11    1.05    0.66
  -2  -5 -11   -0.69    0.60
   2   5 -11    0.08    0.30
   2  -5 -11    0.11    0.63
  -2  -6 -11    0.84    0.94
   2   6 -11    0.44    0.28
   2  -6 -11   -0.04    0.79
   2   0 -12   25.72    1.56
  -2   0 -12   25.80    1.51
  -2  -1 -12    0.55    0.45
   2   1 -12    0.59    0.38
   2   1 -12    0.66    0.43
   2  -1 -12    0.59    0.48
  -2   1 -12    0.24    0.30
   2   2 -12    0.24    0.41
  -2  -2 -12    0.66    0.48
   2  -2 -12   -0.20    0.50
  -2   2 -12    0.42    0.23
  -2   2 -12    0.36    0.27
  -2  -3 -12    0.94    0.57
   2   3 -12    1.00    0.41
  -2  -4 -12    0.53    0.66
   2   4 -12    2.10    0.40
   2  -4 -12    1.30    0.73
   2   5 -12    0.87    0.29
  -2  -5 -12    0.95    0.68
   2  -5 -12    0.92    0.77
  -2   0 -13   -0.08    0.39
   2   0 -13    0.12    0.46
   2   1 -13   -0.45    0.37
   2   1 -13    1.03    0.47
  -2  -1 -13    0.01    0.47
  -2   1 -13    0.36    0.32
   2  -1 -13    0.08    0.49
  -2  -2 -13    0.71    0.54
   2   2 -13    1.25    0.45
   2   2 -13    0.71    0.37
   2  -2 -13    1.17    0.57
  -2   2 -13    1.00    0.27
  -2  -3 -13   -0.37    0.58
   2   3 -13    0.05    0.41
   2  -3 -13    1.13    0.59
  -2  -4 -13    7.39    0.94
   2  -4 -13    6.63    0.91
   2   5 -13    0.46    0.22
  -2  -5 -13   -0.98    0.73
   2  -5 -13    1.19    0.90
  -2   0 -14    2.71    0.53
   2   0 -14    4.00    0.61
   2   1 -14    4.25    0.63
  -2  -1 -14    3.34    0.61
   2   1 -14    3.05    0.58
   2  -1 -14    3.70    0.67
  -2   1 -14    3.61    0.50
  -2   1 -14    4.08    0.47
   2   2 -14    0.26    0.38
  -2  -2 -14    1.00    0.59
   2   2 -14    0.44    0.44
  -2   2 -14    0.35    0.30
   2  -2 -14   -0.11    0.58
   2   3 -14    0.27    0.35
   2   3 -14    0.34    0.40
  -2  -3 -14   -0.84    1.25
   2  -3 -14    0.31    0.63
  -2  -4 -14   -0.14    0.72
   2   4 -14   -0.15    0.28
   2   4 -14   -0.40    0.28
   2  -4 -14    0.05    0.67
  -2   0 -15   -0.04    0.42
   2   0 -15   -0.41    0.50
  -2  -1 -15    2.53    0.61
   2   1 -15    3.30    0.62
   2   1 -15    3.38    0.64
  -2   1 -15    2.96    0.48
  -2   1 -15    3.35    0.45
   2  -1 -15    2.66    0.64
   2   2 -15    0.09    0.45
   2   2 -15    0.27    0.41
  -2  -2 -15    0.53    0.58
  -2   2 -15    0.23    0.24
  -2   2 -15    0.33    0.27
   3   0   0    0.02    0.09
  -3   0   0    0.16    0.10
   3   1   0    4.84    0.36
  -3  -1   0    4.88    0.35
   3  -2   0    5.61    0.40
   3   2   0    6.04    0.45
   3   3   0    2.52    0.35
   3  -3   0    1.98    0.28
  -3  -3   0    1.62    0.31
   3   4   0  162.92    8.19
  -3  -4   0  161.63    8.18
   3  -4   0  160.13    8.15
  -3  -5   0    3.40    0.53
   3  -5   0    3.05    0.45
   3   5   0    2.47    0.49
  -3  -6   0    1.05    0.49
   3  -6   0    1.33    0.47
   3   6   0    0.85    0.49
  -3  -7   0    1.56    0.62
   3   7   0    0.61    0.57
   3  -7   0    1.14    0.54
   3   8   0    1.39    0.63
  -3  -8   0    2.87    0.70
   3   0   1    2.23    0.18
  -3   0  -1    1.64    0.16
   3   0  -1    2.01    0.18
  -3  -1  -1   43.75    2.30
   3   1  -1   44.16    2.30
   3   1   1   45.61    2.30
  -3  -1   1   45.71    2.31
   3  -2   1   27.01    1.43
   3   2  -1   28.06    1.48
   3   2   1   27.83    1.49
  -3  -2   1   27.71    1.48
   3  -3   1   23.87    1.26
  -3  -3  -1   24.61    1.31
   3   3  -1   22.51    1.31
   3   3   1   21.43    1.32
   3  -3  -1   23.33    1.30
  -3  -3   1   23.71    1.31
  -3  -4  -1   24.33    1.46
   3  -4   1   25.69    1.41
   3   4  -1   25.09    1.46
   3  -4  -1   24.87    1.44
  -3  -4   1   26.00    1.45
   3   4   1   25.60    1.48
  -3  -5  -1   23.42    1.38
   3   5  -1   22.09    1.36
   3  -5   1   21.78    1.32
   3  -5  -1   21.52    1.35
  -3  -5   1   21.36    1.35
   3   5   1   23.17    1.40
  -3  -6  -1    1.39    0.49
   3  -6   1    1.14    0.52
   3   6  -1    1.44    0.51
   3  -6  -1    1.39    0.50
  -3  -6   1    1.40    0.51
   3   6   1    1.28    0.46
   3   7  -1    2.34    0.61
   3  -7   1    2.17    0.55
  -3  -7  -1    2.09    0.65
   3  -7  -1    2.56    0.60
   3   7   1    1.76    0.64
  -3  -7   1    1.07    0.59
  -3  -8  -1   10.47    1.04
   3  -8   1   12.38    1.05
   3   8  -1   10.91    1.04
   3  -8  -1    9.29    0.99
   3   8   1   11.33    1.05
  -3  -8   1   11.60    1.05
   3   0   2   -0.02    0.08
  -3   0  -2    0.13    0.09
   3  -1   2  171.17    8.53
   3   2  -2   11.59    0.73
   3  -2   2   12.17    0.65
   3   2   2   13.00    0.76
  -3  -2   2   11.64    0.73
   3  -3   2   38.78    2.00
   3   3  -2   38.40    2.06
  -3  -3  -2   39.47    2.09
  -3  -3   2   37.55    2.06
   3   3   2   38.70    2.09
   3  -3  -2   39.72    2.07
   3  -4   2    7.70    0.59
   3   4  -2    8.43    0.68
  -3  -4  -2    9.37    0.69
   3  -4  -2    7.05    0.66
  -3  -4   2    8.19    0.68
   3   4   2    8.73    0.71
  -3  -5  -2    1.89    0.43
   3  -5   2    1.47    0.35
   3   5  -2    1.82    0.44
  -3  -5   2    1.68    0.41
   3   5   2    1.91    0.47
   3  -5  -2    1.70    0.48
   3  -6   2    6.04    0.62
   3   6  -2    5.42    0.66
  -3  -6  -2    4.91    0.72
   3   6   2    5.88    0.75
  -3  -6   2    6.36    0.69
   3  -6  -2    6.39    0.67
  -3  -7  -2    8.86    0.88
   3   7  -2    9.57    0.89
   3  -7   2    8.22    0.78
   3   7   2    8.24    0.93
   3  -7  -2    9.20    0.89
  -3  -7   2   10.04    0.88
   3  -8   2    1.22    0.55
  -3  -8  -2    1.14    0.69
   3   8  -2    0.72    0.60
  -3  -8   2   -0.04    0.59
   3  -8  -2    0.97    0.61
   3   8   2    0.88    0.68
   3   0  -3  451.34   22.29
  -3   0  -3  431.26   22.06
   3   0   3  434.58   22.07
   3  -1   3    9.67    0.49
  -3  -1  -3    9.24    0.58
   3   1  -3   10.02    0.59
  -3   1  -3    9.22    0.49
   3   1   3    9.63    0.59
  -3  -1   3    9.77    0.59
   3  -2   3    4.23    0.24
   3   2  -3    5.59    0.42
  -3  -2  -3    4.62    0.43
   3   2   3    3.59    0.39
  -3  -2   3    4.60    0.41
   3   3  -3   33.58    1.81
  -3  -3  -3   32.55    1.83
   3  -3   3   34.11    1.73
   3   3   3   32.71    1.85
  -3  -3   3   35.26    1.82
   3  -3  -3   33.09    1.82
   3  -4   3    9.07    0.62
   3   4  -3    9.32    0.73
  -3  -4  -3   10.23    0.75
  -3  -4   3    9.41    0.74
   3  -4  -3   10.56    0.80
   3   4   3    9.22    0.73
  -3  -5  -3   18.62    1.25
   3   5  -3   16.80    1.13
   3  -5   3   17.95    1.04
   3  -5  -3   16.76    1.19
  -3  -5   3   17.02    1.14
   3   5   3   16.67    1.20
   3  -6   3    0.93    0.39
  -3  -6  -3    1.24    0.47
   3   6  -3    1.14    0.47
   3  -6  -3    1.50    0.50
   3   6   3    0.37    0.55
  -3  -6   3    1.74    0.49
   3   7  -3    1.66    0.55
   3  -7   3    1.38    0.48
  -3  -7  -3    1.57    0.67
   3   7   3    1.80    0.67
  -3  -7   3    1.65    0.58
   3  -7  -3    1.64    0.58
  -3  -8  -3    1.33    0.75
   3   8  -3    2.21    0.65
   3  -8   3    2.80    0.57
  -3  -8   3    2.51    0.65
   3   8   3    2.22    0.77
   3  -8  -3    2.43    0.68
   3   0   4   -0.03    0.12
  -3   0  -4    0.36    0.14
   3   1  -4   16.61    0.94
  -3  -1  -4   16.18    0.93
  -3   1  -4   16.46    0.84
   3   1   4   16.78    0.94
  -3  -2  -4    9.55    0.68
   3   2  -4    9.34    0.63
   3   2   4    9.68    0.68
  -3  -2   4    9.60    0.63
   3  -3   4   16.53    0.86
   3   3  -4   16.58    1.00
  -3  -3  -4   15.90    1.07
   3  -3  -4   17.18    1.07
   3   3   4   16.90    1.03
  -3  -3   4   17.53    1.01
  -3  -4  -4   71.83    3.85
   3   4  -4   71.72    3.79
   3  -4   4   71.63    3.69
   3   4   4   74.92    3.85
   3  -4  -4   74.36    3.83
  -3  -4   4   74.07    3.79
   3   5  -4    1.00    0.39
   3  -5   4    1.01    0.28
  -3  -5  -4    1.89    0.51
  -3  -5   4    0.66    0.39
   3  -5  -4    0.66    0.48
  -3  -6  -4    7.68    0.83
   3  -6   4    6.05    0.54
   3   6  -4    6.15    0.67
  -3  -6   4    5.64    0.66
   3  -6  -4    5.80    0.70
   3   6   4    5.65    0.74
  -3  -7  -4    2.49    0.72
   3   7  -4    2.83    0.57
   3  -7   4    2.05    0.46
   3   7   4    1.59    0.64
  -3  -7   4    2.62    0.59
   3  -7  -4    1.25    0.61
   3  -8   4   -0.30    0.44
  -3  -8  -4    0.13    0.85
   3   8  -4    0.27    0.56
  -3  -8   4   -0.27    0.56
   3  -8  -4    0.87    0.81
  -3   0  -5   70.25    3.60
   3   0   5   71.87    3.60
   3   1  -5   35.30    1.91
  -3  -1  -5   36.29    1.91
   3   1   5   35.13    1.91
  -3   1  -5   37.32    1.83
   3   2  -5   11.94    0.78
  -3  -2  -5   12.55    0.79
   3  -2  -5   12.75    0.81
   3   2   5   12.10    0.83
  -3  -3  -5   16.13    1.05
   3   3  -5   15.27    0.98
  -3  -3   5   16.15    0.96
   3   3   5   16.21    1.06
   3  -3  -5   15.05    1.06
  -3  -4  -5    2.73    0.54
   3   4  -5    2.47    0.40
   3  -4   5    2.08    0.19
   3  -4  -5    2.19    0.50
   3   4   5    2.55    0.50
  -3  -4   5    2.21    0.39
   3  -5   5    9.53    0.60
  -3  -5  -5    9.82    0.86
   3   5  -5    8.87    0.78
  -3  -5   5    8.64    0.74
   3  -5  -5    8.58    0.85
   3   5   5    9.24    0.88
   3  -6   5    6.74    0.60
  -3  -6  -5    8.06    0.85
   3   6  -5    7.09    0.71
   3  -6  -5    7.48    0.86
  -3  -6   5    7.40    0.70
   3   6   5    6.28    0.85
   3   7  -5    2.46    0.55
   3  -7   5    1.14    0.39
  -3  -7  -5    1.61    0.73
   3  -7  -5    1.33    0.69
   3   7   5    1.16    0.56
  -3  -7   5    1.36    0.54
   3   8  -5    3.32    0.64
   3  -8   5    2.50    0.48
  -3  -8   5    3.69    0.66
  -3   0  -6   -0.14    0.17
   3   1  -6   42.34    2.27
  -3  -1  -6   43.91    2.27
  -3   1  -6   42.08    2.18
   3   1   6   43.93    2.27
  -3  -2  -6   13.04    0.85
   3   2  -6   13.20    0.84
   3  -2  -6   13.67    0.94
   3   2   6   13.90    0.91
   3   3  -6   18.28    1.11
  -3  -3  -6   19.20    1.20
   3  -3  -6   18.29    1.20
   3   3   6   18.00    1.18
  -3  -4  -6    1.04    0.48
   3   4  -6   -0.31    0.32
   3   4   6    0.40    0.46
   3  -4  -6   -0.08    0.47
  -3  -4   6    0.01    0.31
   3   5  -6    8.40    0.79
  -3  -5  -6    8.56    1.01
   3  -5  -6    7.91    0.80
  -3  -5   6    7.09    0.65
   3   5   6    7.84    0.77
  -3  -6  -6    5.12    0.74
   3   6  -6    4.21    0.57
   3  -6   6    5.09    0.41
   3  -6  -6    3.58    0.63
   3   6   6    3.88    0.65
  -3  -6   6    3.78    0.57
   3   7  -6    6.42    0.70
  -3  -7  -6    8.41    0.92
  -3  -7   6    6.20    0.72
   3  -8   6    0.30    0.40
   3   8  -6   -0.07    0.51
  -3  -8   6    0.37    0.65
  -3   0  -7   44.04    2.29
  -3  -1  -7   33.32    1.85
   3   1  -7   34.01    1.85
  -3   1  -7   34.83    1.76
   3   2  -7    8.79    0.66
  -3  -2  -7    7.87    0.71
   3  -2  -7    8.23    0.73
   3   2   7    8.50    0.71
  -3  -3  -7    7.84    0.76
   3   3  -7    9.52    0.72
   3   3   7    8.28    0.77
   3  -3  -7    9.48    0.83
   3   4  -7    0.24    0.35
  -3  -4  -7    0.85    0.49
   3   4   7   -0.07    0.46
   3  -4  -7    1.27    0.55
   3   5  -7   15.44    1.02
  -3  -5  -7   16.25    1.23
   3   5   7   13.92    1.24
   3  -5  -7   16.26    1.22
  -3  -5   7   12.10    0.98
  -3  -6  -7   -0.01    0.65
   3   6  -7   -0.02    0.41
   3  -6  -7    0.45    0.62
   3   6   7    0.44    0.68
  -3  -6   7   -0.38    0.40
  -3  -7  -7    1.98    0.81
   3   7  -7    2.05    0.50
  -3  -7   7    1.06    0.50
   3  -7  -7    0.33    0.75
  -3   0  -8    0.03    0.23
   3   1  -8    6.38    0.54
  -3  -1  -8    6.00    0.52
  -3   1  -8    5.09    0.41
  -3  -2  -8   14.81    0.98
   3   2  -8   13.16    0.93
   3  -2  -8   15.65    1.04
  -3   2  -8   14.24    0.74
  -3  -3  -8    4.50    0.60
   3   3  -8    3.54    0.46
   3  -3  -8    3.75    0.62
   3   4  -8   16.15    1.07
  -3  -4  -8   15.62    1.20
   3  -4  -8   16.72    1.23
  -3  -5  -8    1.56    0.67
   3   5  -8    1.90    0.43
   3  -5  -8    1.98    0.61
   3   6  -8    4.08    0.56
  -3  -6  -8    5.29    0.83
   3  -6  -8    4.55    0.84
   3   7  -8    1.32    0.46
  -3  -7  -8    0.67    0.59
   3  -7  -8   -0.42    0.74
  -3   0  -9   40.52    2.16
   3   1  -9    1.70    0.38
  -3  -1  -9    1.53    0.38
  -3   1  -9    1.32    0.25
  -3  -2  -9   13.50    1.03
   3   2  -9   14.75    0.97
  -3   2  -9   14.88    0.78
   3  -2  -9   14.39    1.06
  -3   2  -9   14.14    0.76
   3   3  -9    8.05    0.72
  -3  -3  -9    7.89    0.80
   3  -3  -9    7.46    0.81
  -3  -4  -9    2.64    0.62
   3   4  -9    2.64    0.47
   3  -4  -9    2.73    0.66
   3   5  -9    0.28    0.39
  -3  -5  -9   -0.52    0.61
   3  -5  -9    0.02    0.55
  -3  -6  -9    2.60    0.65
   3   6  -9    4.75    0.55
   3  -6  -9    4.33    0.84
   3   7  -9    0.92    0.44
  -3  -7  -9    1.45    0.78
  -3   0 -10   -0.20    0.30
   3   1 -10   10.18    0.86
   3  -1 -10    8.11    0.78
  -3   1 -10    9.57    0.63
  -3  -2 -10    9.58    0.81
   3   2 -10    8.48    0.74
  -3   2 -10    8.78    0.55
  -3   2 -10    8.67    0.52
   3  -2 -10    9.56    0.83
   3   3 -10   11.15    0.87
  -3  -3 -10   11.44    1.02
   3  -3 -10   10.46    0.94
   3   4 -10    0.16    0.39
  -3  -4 -10    1.07    0.58
   3  -4 -10    0.01    0.60
  -3  -5 -10    6.38    0.89
   3   5 -10    5.99    0.59
   3  -5 -10    5.61    0.91
  -3  -6 -10    3.83    0.78
   3   6 -10    3.74    0.50
   3  -6 -10    3.14    0.73
  -3   0 -11    1.24    0.38
  -3  -1 -11    1.09    0.43
   3   1 -11    1.41    0.44
  -3   1 -11    1.55    0.30
   3  -1 -11    1.50    0.51
   3   2 -11   -0.13    0.40
  -3  -2 -11    0.63    0.48
  -3   2 -11    0.43    0.20
   3  -2 -11    0.53    0.49
  -3  -3 -11   18.07    1.34
   3   3 -11   18.09    1.19
   3  -3 -11   18.33    1.38
   3   4 -11    0.39    0.42
  -3  -4 -11    0.76    0.58
   3  -4 -11    0.32    0.66
   3   5 -11    0.83    0.38
  -3  -5 -11   -0.18    0.71
   3  -5 -11    1.00    0.68
  -3  -6 -11    0.87    0.66
   3   6 -11    0.25    0.35
   3  -6 -11   -0.74    0.73
   3   0 -12   -0.05    0.43
  -3   0 -12   -0.41    0.34
  -3  -1 -12    2.49    0.53
   3   1 -12    3.52    0.56
   3  -1 -12    4.05    0.62
  -3   1 -12    4.03    0.42
   3   2 -12    4.90    0.60
  -3  -2 -12    5.70    0.69
  -3   2 -12    4.74    0.43
   3  -2 -12    5.15    0.74
   3   3 -12    0.73    0.45
  -3  -3 -12    0.88    0.55
   3  -3 -12    1.34    0.68
   3   4 -12    0.48    0.43
  -3  -4 -12    1.51    0.69
   3  -4 -12    1.94    0.64
   3   5 -12    0.90    0.36
  -3  -5 -12    0.54    0.73
   3  -5 -12    0.32    0.75
   3   0 -13    2.61    0.55
  -3   0 -13    2.14    0.45
  -3  -1 -13    5.90    0.66
   3   1 -13    5.69    0.68
   3   1 -13    5.77    0.64
   3  -1 -13    4.01    0.70
  -3   1 -13    5.41    0.50
   3   2 -13    4.18    0.59
  -3  -2 -13    4.58    0.67
   3  -2 -13    4.04    0.73
  -3   2 -13    3.76    0.31
  -3   2 -13    3.30    0.33
  -3  -3 -13    0.44    0.61
   3   3 -13    0.20    0.44
   3  -3 -13    0.19    0.65
  -3  -4 -13    0.72    0.71
   3   4 -13    0.12    0.39
   3  -4 -13   -0.17    0.66
   3   0 -14   -0.17    0.50
  -3   0 -14    0.55    0.41
  -3  -1 -14    2.56    0.56
   3   1 -14    3.08    0.58
   3   1 -14    1.66    0.50
   3  -1 -14    2.11    0.61
  -3   1 -14    2.01    0.37
  -3  -2 -14    0.33    0.58
   3   2 -14    0.25    0.44
   3   2 -14    0.92    0.49
  -3   2 -14    0.46    0.19
   3  -2 -14    0.36    0.64
   3   3 -14    1.14    0.46
  -3  -3 -14    0.79    0.67
   3  -3 -14    0.94    0.72
   3   0 -15    0.67    0.53
  -3   0 -15    0.48    0.45
   3   0 -15    0.87    0.58
   3   1 -15    0.42    0.52
   3   1 -15    0.00    0.46
  -3  -1 -15    0.37    0.51
  -3   1 -15    0.88    0.38
   3  -1 -15    0.02    0.59
  -3   1 -15    0.09    0.32
   3   2 -15   -0.41    0.47
  -3  -2 -15   -0.32    0.56
   3   2 -15   -0.83    0.40
  -3   2 -15    0.11    0.14
   3  -2 -15    0.37    0.63
  -4   0   0  218.46   11.64
   4   0   0  234.62   11.63
  -4  -1   0    0.21    0.18
   4   1   0    0.22    0.19
  -4  -2   0  536.06   28.62
   4  -2   0  599.21   28.50
   4   2   0  574.64   28.68
   4  -2   0  548.09   28.46
  -4  -3   0    1.41    0.28
   4   3   0    0.92    0.27
   4  -3   0    0.86    0.24
   4   4   0   21.27    1.31
  -4  -4   0   21.52    1.29
   4  -4   0   21.64    1.25
   4   5   0    0.27    0.42
  -4  -5   0    0.48    0.40
   4  -5   0   -0.07    0.35
   4  -6   0    1.88    0.48
   4   6   0    0.96    0.47
  -4  -6   0    1.14    0.52
  -4  -7   0    0.06    0.57
   4  -7   0   -0.21    0.47
   4   7   0   -0.31    0.51
   4  -8   0    1.21    0.88
   4   8   0    0.57    0.67
  -4  -8   0    1.38    0.64
  -4   0  -1   -0.01    0.12
   4   0  -1   -0.06    0.12
   4   0   1    0.00    0.11
  -4   0   1    0.17    0.14
  -4  -1  -1   12.44    0.75
   4  -1   1   13.57    0.72
   4   1   1   13.03    0.77
  -4  -1   1   14.38    0.79
  -4  -2  -1   83.68    3.81
   4   2  -1   69.98    3.80
  -4  -2   1   70.83    3.80
   4   2   1   72.56    3.80
  -4  -3  -1    6.60    0.56
   4  -3   1    4.94    0.45
   4   3  -1    6.43    0.53
   4   3   1    5.41    0.50
   4  -3  -1    6.63    0.50
  -4  -3   1    5.66    0.51
   4   4  -1   24.75    1.51
   4  -4   1   26.63    1.46
  -4  -4  -1   25.91    1.55
  -4  -4   1   29.58    1.54
   4   4   1   25.34    1.55
   4  -4  -1   25.77    1.50
  -4  -5  -1    4.85    0.62
   4  -5   1    5.53    0.55
   4   5  -1    6.67    0.66
  -4  -5   1    6.06    0.63
   4  -5  -1    6.17    0.60
   4   5   1    6.27    0.69
   4  -6   1    8.18    0.71
   4   6  -1    7.55    0.78
  -4  -6  -1    6.56    0.77
   4  -6  -1    7.46    0.74
  -4  -6   1    7.12    0.73
   4   6   1    7.96    0.83
   4  -7   1   11.57    0.97
   4   7  -1    9.80    0.94
  -4  -7  -1   11.24    0.99
   4  -7  -1    9.56    0.92
  -4  -7   1   11.14    0.96
   4   7   1    9.60    0.95
  -4  -8  -1    0.11    0.69
   4  -8   1    0.87    0.55
   4   8  -1    0.52    0.62
   4  -8  -1    1.14    0.64
  -4  -8   1    0.34    0.60
   4   8   1    1.42    0.69
   4   0   2   25.41    1.37
   4   0  -2   29.11    1.45
  -4   0  -2   25.31    1.37
   4   1  -2   28.81    1.52
  -4  -1  -2   27.58    1.51
   4   1   2   28.02    1.51
  -4  -1   2   29.89    1.53
  -4  -2  -2   16.52    0.93
   4   2  -2   15.40    0.95
  -4  -2   2   16.74    0.96
   4   2   2   16.04    0.96
   4  -3   2   56.85    2.89
   4   3  -2   56.23    2.96
  -4  -3  -2   56.03    2.97
   4   3   2   56.79    2.97
  -4  -3   2   57.02    2.96
   4  -3  -2   57.05    2.96
   4  -4   2    1.60    0.29
   4   4  -2    2.01    0.37
  -4  -4  -2    2.03    0.44
   4   4   2    2.39    0.44
  -4  -4   2    2.23    0.42
   4  -4  -2    2.05    0.40
   4   5  -2   40.34    2.27
  -4  -5  -2   42.29    2.27
   4  -5   2   42.27    2.19
   4   5   2   40.28    2.31
   4  -5  -2   39.41    2.26
  -4  -5   2   39.81    2.27
  -4  -6  -2    4.18    0.64
   4  -6   2    4.40    0.54
   4   6  -2    3.97    0.63
  -4  -6   2    4.04    0.62
   4   6   2    4.88    0.69
   4  -6  -2    2.99    0.61
   4   7  -2    1.63    0.57
  -4  -7  -2    1.96    0.69
   4  -7   2    2.04    0.51
  -4  -7   2    1.61    0.60
   4   7   2    2.00    0.62
   4  -7  -2    2.93    0.63
   4   8  -2    0.29    0.61
  -4  -8  -2    0.03    0.62
   4  -8   2    0.98    0.55
   4   8   2   -0.19    0.69
   4  -8  -2    0.26    0.60
  -4  -8   2    0.75    0.65
  -4   0  -3    0.09    0.12
   4   0   3   -0.21    0.12
   4   1  -3   34.02    1.81
   4  -1   3   34.42    1.73
  -4   1  -3   33.01    1.73
   4   1   3   35.17    1.80
  -4  -1   3   34.45    1.81
  -4  -2  -3   58.89    3.04
   4   2  -3   60.08    3.04
   4  -2   3   57.10    2.93
   4  -2   3   58.93    2.94
   4   2   3   59.45    3.05
  -4  -2   3   57.80    3.04
   4  -3   3    9.66    0.57
   4   3  -3    9.53    0.72
  -4  -3  -3   10.01    0.70
   4   3   3   10.43    0.71
   4  -3  -3    9.89    0.74
  -4  -3   3   10.01    0.72
   4  -4   3    2.88    0.30
  -4  -4  -3    2.87    0.51
   4   4  -3    2.90    0.43
   4   4   3    2.19    0.41
  -4  -4   3    2.34    0.42
   4  -4  -3    2.91    0.49
   4   5  -3    3.36    0.53
  -4  -5  -3    4.82    0.65
   4  -5   3    3.52    0.40
   4  -5  -3    3.48    0.57
   4   5   3    4.23    0.66
  -4  -5   3    4.17    0.55
  -4  -6  -3    6.00    0.76
   4  -6   3    4.11    0.50
   4   6  -3    4.86    0.64
   4   6   3    5.08    0.72
  -4  -6   3    4.91    0.64
   4  -6  -3    4.71    0.68
   4  -7   3   13.18    1.01
  -4  -7  -3   13.92    1.22
   4   7  -3   13.84    1.16
   4  -7  -3   13.85    1.21
   4   7   3   13.60    1.20
  -4  -7   3   14.40    1.18
   4  -8   3    0.21    0.49
   4   8  -3    0.87    0.63
  -4  -8  -3    0.18    0.78
   4   8   3    0.74    0.87
   4  -8  -3    0.24    0.64
  -4  -8   3    0.34    0.60
  -4   0  -4   92.29    4.46
   4   0   4   84.85    4.46
  -4  -1  -4   79.36    4.24
   4   1  -4   86.19    4.26
   4  -1   4   82.50    4.18
  -4   1  -4   85.89    4.19
   4   1   4   83.81    4.25
   4   2  -4  165.23    8.45
  -4  -2  -4  174.41    8.47
  -4  -2   4  166.48    8.45
   4   2   4  165.14    8.47
   4   3  -4   53.67    2.85
   4  -3   4   54.57    2.70
  -4  -3  -4   52.95    2.87
  -4  -3   4   55.55    2.85
   4  -3  -4   55.20    2.88
   4   3   4   52.31    2.88
   4  -4   4    4.29    0.36
   4   4  -4    5.37    0.53
  -4  -4  -4    4.05    0.51
   4   4   4    4.93    0.59
  -4  -4   4    3.88    0.50
   4  -4  -4    3.92    0.50
   4  -5   4    0.74    0.25
  -4  -5  -4    0.14    0.44
   4   5   4    0.80    0.49
  -4  -5   4    0.22    0.41
   4  -6   4    4.11    0.45
   4   6  -4    4.06    0.61
  -4  -6  -4    4.46    0.79
   4   6   4    4.15    0.74
  -4  -6   4    3.95    0.61
   4  -6  -4    3.40    0.68
   4   7  -4    0.84    0.54
   4  -7   4    0.74    0.39
  -4  -7  -4    0.79    0.53
   4   7   4    0.95    0.70
  -4  -7   4    1.51    0.57
   4  -7  -4    0.81    0.62
   4  -8   4    2.71    0.52
   4   8  -4    3.53    0.72
  -4  -8  -4    4.14    1.12
  -4  -8   4    3.52    0.71
   4  -8  -4    3.82    1.00
  -4   0  -5   -0.02    0.15
   4   0   5    0.31    0.18
  -4  -1  -5    9.39    0.60
   4   1  -5    8.11    0.61
   4   1   5    7.85    0.60
  -4   1  -5    8.57    0.48
   4   2  -5   10.77    0.75
  -4  -2  -5   11.72    0.80
   4   2   5   11.57    0.80
   4   3  -5    2.11    0.38
  -4  -3  -5    2.73    0.43
   4  -3  -5    3.16    0.48
   4   3   5    2.56    0.48
  -4  -3   5    2.71    0.40
  -4  -4  -5   37.11    2.11
   4   4  -5   40.12    2.07
   4  -4  -5   35.32    2.10
   4   4   5   36.56    2.13
  -4  -4   5   36.32    2.05
   4   5  -5    1.06    0.43
   4  -5   5    0.92    0.21
  -4  -5  -5    1.63    0.48
  -4  -5   5    0.92    0.43
   4  -5  -5    0.34    0.55
   4   5   5    0.61    0.55
  -4  -6  -5    3.06    0.72
   4  -6   5    2.75    0.35
   4   6  -5    2.30    0.54
   4   6   5    4.16    0.70
   4  -6  -5    3.42    0.58
  -4  -6   5    2.57    0.56
   4   7  -5    0.64    0.53
   4  -7   5    0.84    0.34
  -4  -7  -5    0.03    0.57
   4  -7  -5    1.62    0.65
   4   7   5    0.07    0.63
  -4  -7   5    0.41    0.54
   4   8  -5   -0.63    0.55
   4  -8   5   -0.06    0.39
  -4  -8   5    0.94    0.68
   4   0   6  193.75    9.76
  -4   0  -6  196.01    9.76
   4   1  -6    3.82    0.43
  -4  -1  -6    4.31    0.42
   4   1   6    3.78    0.39
  -4   1  -6    3.69    0.28
  -4  -2  -6   55.80    3.11
   4   2  -6   56.71    3.10
   4   2   6   66.28    3.14
  -4  -3  -6   22.21    1.42
   4   3  -6   23.98    1.38
   4  -3  -6   24.62    1.45
  -4  -3   6   23.31    1.35
   4   3   6   23.54    1.43
   4   4  -6   13.96    0.97
  -4  -4  -6   15.04    1.01
  -4  -4   6   14.01    0.95
   4   4   6   13.89    1.11
   4  -4  -6   13.03    1.07
   4   5  -6   20.86    1.33
  -4  -5  -6   23.98    1.50
  -4  -5   6   18.78    1.41
   4   5   6   19.04    1.46
   4  -5  -6   19.98    1.45
  -4  -6  -6    1.39    0.65
   4   6  -6    1.12    0.48
   4  -6   6    0.86    0.15
   4   6   6    0.40    0.64
  -4  -6   6    0.58    0.48
   4  -6  -6    0.11    0.61
   4   7  -6    1.44    0.53
  -4  -7  -6    1.63    0.86
   4  -7   6    1.14    0.26
  -4  -7   6    0.47    0.53
   4   7   6    0.77    0.77
   4  -7  -6    0.82    0.71
   4  -8   6    0.23    0.33
   4   8  -6   -0.64    0.53
  -4  -8   6   -0.24    0.68
  -4   0  -7    0.31    0.21
  -4  -1  -7   44.02    2.38
   4   1  -7   45.92    2.41
  -4   1  -7   44.09    2.30
   4   1   7   46.66    2.39
   4   2  -7   19.76    1.20
  -4  -2  -7   19.77    1.24
   4   2   7   20.80    1.24
   4   3  -7    5.27    0.54
  -4  -3  -7    4.50    0.58
   4  -3  -7    4.41    0.63
   4   3   7    4.10    0.60
  -4  -4  -7   -0.03    0.49
   4   4  -7    0.81    0.41
   4   4   7    0.55    0.53
   4  -4  -7    0.61    0.42
   4   5  -7    1.60    0.46
  -4  -5  -7    0.86    0.60
   4  -5  -7    1.31    0.64
  -4  -5   7    0.71    0.43
   4   5   7    1.01    0.58
  -4  -6  -7    4.71    0.76
   4   6  -7    4.61    0.63
   4  -6  -7    5.41    0.84
  -4  -6   7    4.06    0.60
   4   6   7    4.24    0.78
   4   7  -7    2.35    0.55
  -4  -7  -7    0.93    0.72
   4   7   7    0.67    0.78
  -4  -7   7    1.28    0.54
   4  -7  -7    1.06    0.77
  -4   0  -8   31.15    1.68
   4   1  -8    2.38    0.41
  -4  -1  -8    1.96    0.37
  -4   1  -8    2.05    0.24
   4   2  -8   11.33    0.84
  -4  -2  -8   12.09    0.89
   4  -2  -8   11.31    0.95
   4   2   8   11.45    0.90
  -4  -3  -8    1.27    0.49
   4   3  -8    1.69    0.43
   4   3   8    2.30    0.54
   4  -3  -8    1.14    0.44
  -4  -4  -8    0.05    0.48
   4   4  -8   -0.23    0.40
   4   4   8   -0.68    0.52
   4  -4  -8    0.08    0.72
   4   5  -8    2.30    0.49
  -4  -5  -8    2.12    0.66
   4  -5  -8    2.90    0.73
   4   5   8    2.63    0.59
  -4  -6  -8    5.36    0.85
   4   6  -8    4.61    0.61
   4   6   8    5.22    0.87
   4  -6  -8    5.04    0.88
  -4  -7  -8   -0.09    0.76
   4   7  -8    0.83    0.59
   4  -7  -8    1.29    0.90
  -4  -7   8   -0.31    0.47
  -4   0  -9    0.06    0.29
  -4  -1  -9    2.84    0.43
   4   1  -9    2.58    0.45
  -4   1  -9    2.61    0.28
   4   2  -9    5.82    0.59
  -4  -2  -9    5.61    0.63
   4  -2  -9    6.05    0.71
  -4  -3  -9    1.69    0.54
   4  -3  -9    1.60    0.60
   4   4  -9   10.63    0.91
  -4  -4  -9   11.10    1.01
   4  -4  -9   11.16    1.03
  -4  -5  -9    0.49    0.52
   4   5  -9    0.07    0.43
   4  -5  -9    0.84    0.67
   4   6  -9    4.38    0.58
  -4  -6  -9    3.61    0.84
   4  -6  -9    3.80    0.88
  -4  -7  -9    0.25    0.71
   4   7  -9    1.12    0.48
  -4   0 -10    1.73    0.36
   4   1 -10   -0.11    0.39
  -4  -1 -10    0.59    0.37
  -4   1 -10    0.23    0.22
  -4  -2 -10    0.83    0.44
   4   2 -10    1.71    0.43
   4  -2 -10    0.98    0.54
   4   3 -10   15.55    1.05
  -4  -3 -10   13.40    1.15
   4  -3 -10   13.47    1.22
   4   4 -10    0.54    0.43
  -4  -4 -10    0.10    0.60
   4  -4 -10    1.02    0.68
  -4  -5 -10    4.78    0.75
   4   5 -10    4.49    0.59
   4  -5 -10    4.55    0.79
  -4  -6 -10   -0.35    0.74
   4   6 -10    0.72    0.44
   4  -6 -10   -0.07    0.69
  -4   0 -11   -0.29    0.31
  -4  -1 -11   15.70    1.11
   4   1 -11   14.50    1.04
   4  -1 -11   12.94    1.10
  -4   1 -11   14.01    0.87
  -4  -2 -11    2.23    0.53
   4   2 -11    2.17    0.49
  -4   2 -11    2.22    0.16
   4  -2 -11    2.52    0.63
  -4   2 -11    2.37    0.17
   4   3 -11    5.33    0.62
  -4  -3 -11    4.99    0.72
   4  -3 -11    4.13    0.89
  -4  -4 -11   -0.03    0.61
   4   4 -11    0.81    0.46
   4  -4 -11    0.59    0.52
   4   5 -11    1.03    0.44
  -4  -5 -11    0.62    0.59
   4  -5 -11    0.32    0.76
  -4  -6 -11   -0.49    0.77
   4   6 -11    0.84    0.44
   4  -6 -11    0.27    0.72
  -4   0 -12   12.66    0.91
   4   1 -12    0.68    0.46
  -4  -1 -12    0.18    0.42
  -4   1 -12    0.59    0.27
   4  -1 -12    0.23    0.48
  -4  -2 -12    4.11    0.62
   4   2 -12    3.22    0.56
  -4   2 -12    3.53    0.21
  -4   2 -12    3.17    0.20
   4  -2 -12    3.52    0.69
  -4  -3 -12    3.70    0.66
   4   3 -12    3.08    0.56
   4  -3 -12    1.76    0.69
  -4  -4 -12   -0.06    0.58
   4   4 -12   -0.18    0.43
   4  -4 -12   -0.54    0.67
   4   5 -12    0.54    0.43
  -4  -5 -12    0.34    0.69
   4   0 -13    0.00    0.48
  -4   0 -13    0.34    0.39
  -4  -1 -13   -0.14    0.46
   4   1 -13    0.65    0.51
   4  -1 -13    0.07    0.53
  -4   1 -13    0.36    0.29
   4   2 -13    2.86    0.56
  -4  -2 -13    2.76    0.62
   4  -2 -13    1.51    0.62
   4   3 -13    1.53    0.49
  -4  -3 -13    1.16    0.66
   4  -3 -13    0.90    0.71
  -4  -4 -13    3.24    0.80
   4   4 -13    1.95    0.49
   4  -4 -13    2.18    0.80
   4   0 -14   -0.30    0.52
   4   0 -14    0.78    0.64
  -4   0 -14    0.10    0.41
  -4  -1 -14   -0.27    0.48
   4   1 -14    0.60    0.53
   4   1 -14    0.38    0.46
   4  -1 -14    0.22    0.55
  -4   1 -14    0.05    0.30
  -4  -2 -14    2.06    0.61
   4   2 -14    2.21    0.57
   4  -2 -14    2.66    0.69
   4   3 -14    4.09    0.62
  -4  -3 -14    4.29    0.77
   4  -3 -14    4.34    0.87
   4   0 -15    0.37    0.52
  -4   0 -15    0.55    0.42
   4   0 -15   -0.81    0.56
   4   1 -15    1.63    0.57
   4   1 -15    0.96    0.51
  -4  -1 -15    2.11    0.57
   4  -1 -15    1.61    0.64
  -4   1 -15    0.94    0.32
  -4   1 -15    1.00    0.35
   4   2 -15   -0.17    0.62
  -4  -2 -15   -0.12    0.58
   4   2 -15   -0.68    0.48
   4  -2 -15    0.65    0.67
   5   0   0    0.00    0.13
  -5   0   0   -0.03    0.15
   5  -1   0    3.83    0.32
  -5  -1   0    4.23    0.35
   5   1   0    3.76    0.34
   5   2   0   27.68    1.54
  -5  -2   0   28.04    1.54
   5   3   0    2.06    0.36
   5  -3   0    1.99    0.29
  -5  -3   0    2.23    0.39
  -5  -4   0   32.72    1.82
   5  -4   0   31.39    1.75
   5   4   0   31.70    1.83
   5   5   0    2.17    0.62
   5  -5   0    2.78    0.45
  -5  -5   0    2.21    0.44
   5  -6   0   17.93    1.16
  -5  -6   0   14.66    1.22
   5   6   0   14.17    1.21
   5  -7   0    1.09    0.53
   5   7   0    0.67    0.62
  -5  -7   0    0.89    0.58
   5   8   0   -0.77    0.62
  -5  -8   0    0.07    0.65
   5  -8   0   -0.18    0.56
   5   0  -1   15.76    0.88
   5   0   1   16.63    0.88
  -5   0   1   15.32    0.91
  -5  -1  -1    5.25    0.42
   5  -1   1    4.46    0.34
   5   1  -1    4.92    0.42
  -5  -1   1    4.92    0.39
   5   1   1    4.54    0.41
  -5  -2  -1    2.10    0.33
   5   2  -1    2.51    0.32
  -5  -2   1    1.90    0.32
   5   2   1    1.59    0.32
  -5  -3  -1   26.71    1.51
   5  -3   1   26.23    1.42
   5   3  -1   26.94    1.51
  -5  -3   1   26.89    1.49
   5  -3  -1   26.05    1.46
   5   3   1   25.36    1.48
  -5  -4  -1    2.26    0.46
   5   4  -1    1.63    0.43
   5  -4   1    2.24    0.34
   5  -4  -1    1.82    0.37
   5   4   1    1.59    0.44
  -5  -4   1    2.17    0.42
   5  -5   1   26.50    1.51
  -5  -5  -1   25.14    1.60
   5   5  -1   26.47    1.74
  -5  -5   1   25.89    1.59
   5  -5  -1   26.12    1.55
   5   5   1   26.37    1.59
  -5  -6  -1    9.92    0.93
   5  -6   1   10.41    0.87
   5   6  -1   10.91    0.96
  -5  -6   1   10.19    0.93
   5  -6  -1   10.15    0.91
   5   6   1    9.07    0.89
   5  -7   1    1.19    0.51
   5   7  -1    1.47    0.62
  -5  -7  -1    0.85    0.65
   5  -7  -1    1.20    0.56
  -5  -7   1    1.62    0.60
   5   7   1    0.57    0.64
  -5  -8  -1    3.38    0.79
   5   8  -1    3.65    0.78
   5  -8   1    2.55    0.73
   5  -8  -1    4.11    0.73
   5   8   1    3.27    0.80
  -5  -8   1    2.10    0.72
   5   0  -2    0.07    0.20
   5   0   2   -0.10    0.14
  -5   0  -2   -0.10    0.15
   5  -1   2  165.73    8.67
  -5  -1  -2  172.65    8.72
   5   1   2  176.32    8.72
  -5  -1   2  180.20    8.74
  -5  -2  -2    0.98    0.29
   5   2  -2    0.64    0.27
   5   2   2    1.02    0.30
  -5  -2   2    1.20    0.29
   5   3  -2   29.47    1.57
   5  -3   2   27.49    1.45
  -5  -3  -2   26.44    1.56
   5  -3  -2   26.47    1.54
   5   3   2   28.61    1.55
  -5  -3   2   26.64    1.55
  -5  -4  -2    0.66    0.43
   5  -4   2    0.17    0.24
   5   4  -2    0.40    0.37
   5   4   2    0.29    0.31
   5  -4  -2   -0.12    0.30
  -5  -4   2    0.16    0.36
  -5  -5  -2    1.24    0.42
   5  -5   2    0.90    0.33
  -5  -5   2    1.45    0.48
   5  -5  -2    0.36    0.41
  -5  -6  -2    0.58    0.55
   5  -6   2    0.22    0.62
   5   6  -2   -0.72    0.45
   5   6   2    0.59    0.57
  -5  -6   2   -0.14    0.48
   5  -6  -2    0.50    0.47
   5  -7   2    3.77    0.56
  -5  -7  -2    3.81    0.70
   5   7  -2    4.73    0.74
  -5  -7   2    3.23    0.71
   5  -7  -2    2.72    0.67
   5   7   2    4.11    0.75
   5  -8   2    0.97    0.53
   5   8  -2    0.23    0.63
  -5  -8  -2   -0.25    0.79
   5   8   2   -0.37    1.10
   5  -8  -2    1.06    0.64
  -5  -8   2   -0.05    0.64
   5   0   3  119.55    6.14
   5   0  -3  124.19    6.18
  -5   0  -3  123.25    6.15
  -5  -1  -3    6.96    0.51
   5   1  -3    7.00    0.53
   5   1   3    7.15    0.50
  -5   1  -3    7.19    0.43
  -5  -1   3    6.59    0.53
  -5  -2  -3   34.85    1.91
   5  -2   3   34.09    1.79
   5   2  -3   35.36    1.91
  -5  -2   3   36.97    1.92
   5   2   3   36.19    1.92
  -5  -3  -3   32.64    1.86
   5  -3   3   33.67    1.72
   5   3  -3   33.27    1.85
   5   3   3   33.42    1.87
   5  -3  -3   32.49    1.85
  -5  -3   3   35.34    1.86
   5   4  -3    2.62    0.46
  -5  -4  -3    2.16    0.47
   5  -4   3    1.65    0.27
   5  -4  -3    1.98    0.46
  -5  -4   3    2.54    0.43
   5   4   3    2.61    0.50
  -5  -5  -3   10.07    0.92
   5   5  -3   10.18    0.90
   5  -5   3   10.75    0.73
   5  -5  -3   11.13    0.89
  -5  -5   3   11.91    0.92
   5   5   3    9.04    1.02
   5  -6   3    1.10    0.37
  -5  -6  -3    1.81    0.66
   5   6  -3   -0.38    0.50
  -5  -6   3    0.46    0.50
   5   6   3    0.96    0.57
   5  -6  -3    0.16    0.48
  -5  -7  -3    4.21    0.81
   5  -7   3    4.33    0.54
   5   7  -3    4.91    0.74
   5   7   3    4.96    0.70
   5  -7  -3    4.07    0.75
  -5  -7   3    3.71    0.67
   5  -8   3    1.08    0.51
  -5  -8  -3    2.65    1.06
   5   8  -3    2.33    0.70
  -5  -8   3    3.73    0.81
   5  -8  -3    2.18    0.85
  -5   0  -4    0.42    0.17
   5   0   4    0.14    0.15
   5   0  -4    0.19    0.19
   5   1  -4    7.44    0.57
   5  -1   4    7.34    0.44
  -5  -1  -4    8.63    0.56
   5   1   4    7.90    0.56
  -5   1  -4    7.58    0.46
  -5  -2  -4   20.36    1.21
   5   2  -4   19.77    1.20
  -5  -2   4   22.15    1.22
   5   2   4   20.43    1.21
   5  -3   4   25.08    1.29
  -5  -3  -4   26.47    1.45
   5  -3   4   23.81    1.26
   5   3  -4   24.18    1.45
   5  -3  -4   26.71    1.49
   5   3   4   25.33    1.49
  -5  -3   4   25.48    1.45
   5   4  -4   50.81    2.68
   5  -4   4   48.44    2.52
  -5  -4  -4   50.21    2.71
   5   4   4   48.20    2.72
   5  -4  -4   48.80    2.70
  -5  -4   4   50.89    2.68
   5   5  -4    0.54    0.43
  -5  -5  -4    1.19    0.45
   5  -5   4    0.70    0.25
   5  -5  -4    0.53    0.50
   5   5   4    0.07    0.54
  -5  -5   4    0.07    0.44
  -5  -6  -4    5.23    0.74
   5   6  -4    6.12    0.71
   5  -6   4    4.33    0.46
   5  -6  -4    5.02    0.69
  -5  -6   4    4.17    0.64
   5   6   4    4.70    0.78
   5  -7   4    0.15    0.37
  -5  -7  -4   -0.45    0.70
   5   7  -4    1.31    0.60
   5   7   4    0.47    0.68
  -5  -7   4    1.27    0.59
   5  -7  -4    0.23    0.63
   5   8  -4    1.38    0.69
   5  -8   4    0.43    0.43
  -5  -8   4    0.54    0.75
   5   0   5   34.01    1.79
  -5   0  -5   34.71    1.80
  -5  -1  -5    7.93    0.55
   5  -1   5    6.07    0.39
   5   1  -5    6.39    0.54
  -5   1  -5    7.14    0.42
   5   1   5    6.78    0.53
   5   2  -5   17.64    1.11
  -5  -2  -5   19.04    1.12
   5   2   5   18.27    1.13
   5   3  -5   11.83    0.88
  -5  -3  -5   14.12    0.95
   5  -3  -5   12.17    0.94
   5   3   5   12.54    0.94
  -5  -3   5   12.21    0.89
  -5  -4  -5    2.41    0.45
   5   4  -5    1.13    0.43
  -5  -4   5    1.63    0.44
   5  -4  -5    1.64    0.45
   5   4   5    2.73    0.55
   5   5  -5   17.92    1.21
   5  -5   5   16.91    0.93
   5   5   5   17.18    1.30
   5  -5  -5   18.29    1.26
  -5  -5   5   17.54    1.20
  -5  -6  -5    8.74    0.91
   5   6  -5    8.69    0.84
   5  -6   5    8.67    0.61
  -5  -6   5    9.53    0.84
   5   6   5    8.37    0.92
   5  -6  -5    7.74    0.90
  -5  -7  -5    0.27    0.71
   5  -7   5   -0.11    0.43
   5   7  -5    0.84    0.56
   5   7   5   -0.18    0.81
  -5  -7   5    0.34    0.56
   5  -8   5    3.45    0.49
  -5  -8   5    2.62    0.81
   5   0   6    0.00    0.19
  -5   0  -6    0.44    0.20
  -5  -1  -6   49.47    2.57
   5   1  -6   46.97    2.59
  -5   1  -6   50.13    2.49
   5   1   6   48.90    2.57
   5   2  -6    9.60    0.76
  -5  -2  -6   10.95    0.79
   5   2   6   10.07    0.79
  -5  -3  -6    9.50    0.80
   5   3  -6    8.87    0.77
   5   3   6    8.86    0.73
  -5  -3   6    9.13    0.75
   5  -3  -6    7.92    0.75
  -5  -4  -6    0.17    0.42
   5   4  -6   -0.20    0.39
   5  -4  -6    0.40    0.49
  -5  -4   6    0.27    0.39
   5   4   6    0.60    0.47
  -5  -5  -6    6.31    0.77
   5   5  -6    5.41    0.66
   5   5   6    6.03    0.72
   5  -5  -6    5.82    0.71
  -5  -5   6    5.46    0.66
  -5  -6  -6    3.62    0.76
   5   6  -6    3.22    0.62
  -5  -6   6    3.29    0.61
   5  -6  -6    4.16    0.76
   5   6   6    3.28    0.79
   5   7  -6    4.59    0.75
  -5  -7   6    5.27    0.72
   5   7   6    5.36    0.90
   5  -7  -6    4.74    0.87
   5   0   7   20.07    1.10
  -5   0  -7   19.26    1.10
   5   1  -7    5.80    0.54
  -5  -1  -7    6.19    0.52
   5   1   7    4.68    0.49
  -5   1  -7    5.16    0.38
  -5  -2  -7   13.12    0.95
   5   2  -7   14.19    0.94
   5   2   7   13.95    0.97
  -5  -3  -7   22.68    1.48
   5   3  -7   23.47    1.43
   5   3   7   25.01    1.51
   5  -3  -7   24.70    1.53
  -5  -4  -7    0.53    0.53
   5   4  -7    0.28    0.43
   5   4   7    0.09    0.41
   5  -4  -7   -0.22    0.60
  -5  -5  -7    7.89    0.89
   5   5  -7    6.85    0.71
   5   5   7    6.43    0.82
  -5  -5   7    7.08    0.71
   5  -5  -7    6.71    0.76
  -5  -6  -7    0.00    0.63
   5   6  -7   -0.27    0.49
   5   6   7   -0.14    0.51
   5  -6  -7    0.02    0.64
  -5  -6   7   -0.12    0.47
  -5  -7  -7    1.78    0.76
   5   7  -7    1.54    0.88
  -5  -7   7    1.02    0.55
   5  -7  -7    1.98    0.78
   5   7   7    1.57    0.81
  -5   0  -8   -0.14    0.23
  -5  -1  -8    6.08    0.55
   5   1  -8    5.48    0.57
   5   1   8    5.26    0.52
  -5   1  -8    5.19    0.40
   5   2  -8   17.28    1.17
  -5  -2  -8   22.43    1.22
   5   2   8   16.04    1.18
  -5  -3  -8    2.82    0.52
   5   3  -8    2.23    0.46
   5   3   8    1.72    0.47
   5  -3  -8    2.44    0.60
   5   4  -8   11.99    1.01
  -5  -4  -8   11.62    1.01
   5  -4  -8   15.03    1.09
   5   4   8   12.10    1.07
   5   5  -8   -0.21    0.46
  -5  -5  -8    0.73    0.50
   5   5   8    0.49    0.65
   5  -5  -8   -0.13    0.59
   5   6  -8    3.38    0.62
  -5  -6  -8    3.32    0.82
   5  -6  -8    4.58    0.84
   5   6   8    4.87    0.89
  -5  -7  -8    0.18    0.71
   5   7  -8    0.36    0.54
   5   7   8    1.33    0.82
  -5  -7   8    1.02    0.57
  -5   0  -9   24.02    1.35
   5   1  -9    1.19    0.41
  -5  -1  -9    0.92    0.37
  -5   1  -9    1.35    0.22
  -5  -2  -9   18.16    1.21
  -5  -3  -9    2.79    0.56
   5   3  -9    2.88    0.52
   5   3   9    2.90    0.61
   5  -3  -9    3.09    0.63
  -5  -4  -9    0.97    0.60
   5   4  -9    0.57    0.47
   5  -4  -9    0.45    0.63
   5   4   9    1.18    0.57
   5   5  -9    2.86    0.58
  -5  -5  -9    1.57    0.70
   5   5   9    3.32    0.78
   5  -5  -9    2.77    0.79
   5   6  -9    0.96    0.52
  -5  -6  -9    1.52    0.61
   5  -6  -9    2.30    0.93
  -5  -7  -9   -1.22    0.96
   5   7  -9   -0.37    0.48
  -5   0 -10   -0.01    0.29
   5   1 -10   13.66    1.00
  -5  -1 -10   14.09    0.96
  -5   1 -10   12.97    0.79
  -5  -2 -10    2.51    0.53
   5   2 -10    1.93    0.48
   5  -2 -10    3.26    0.60
   5   3 -10    2.19    0.50
  -5  -3 -10    0.90    0.55
   5  -3 -10    1.35    0.58
   5   4 -10    3.17    0.57
  -5  -4 -10    3.56    0.73
   5  -4 -10    3.79    0.68
  -5  -5 -10   -0.46    0.67
   5   5 -10    0.29    0.48
   5  -5 -10    0.15    0.54
   5   6 -10    0.62    0.50
  -5  -6 -10    1.07    0.69
   5  -6 -10    0.41    0.80
  -5   0 -11    0.00    0.31
   5   1 -11    1.73    0.50
  -5   1 -11    1.81    0.28
   5   2 -11    0.27    0.45
  -5  -2 -11   -0.40    0.45
   5  -2 -11    0.25    0.50
  -5  -3 -11    5.53    0.73
   5   3 -11    5.32    0.68
   5  -3 -11    6.90    0.80
   5   4 -11   -0.07    0.45
  -5  -4 -11    0.08    0.63
   5  -4 -11    0.07    0.67
   5   5 -11    3.05    0.58
  -5  -5 -11    3.73    0.81
   5  -5 -11    2.82    0.84
   5   6 -11    1.58    0.52
  -5  -6 -11   -0.45    0.73
  -5   0 -12    0.13    0.34
  -5  -1 -12    1.44    0.49
   5   1 -12    1.43    0.52
   5  -1 -12    1.44    0.59
  -5   1 -12    1.03    0.28
  -5  -2 -12    2.83    0.60
   5   2 -12    2.72    0.57
   5  -2 -12    2.58    0.68
   5   3 -12   -0.01    0.47
  -5  -3 -12   -0.05    0.55
   5  -3 -12    0.19    0.57
  -5  -4 -12    3.73    0.75
   5   4 -12    2.61    0.56
   5  -4 -12    3.36    0.85
   5   5 -12    0.33    0.48
  -5  -5 -12    0.48    0.68
   5  -5 -12    0.89    0.69
   5   0 -13    7.02    0.78
  -5   0 -13    5.39    0.58
  -5  -1 -13    0.24    0.45
   5   1 -13    0.57    0.51
   5  -1 -13   -0.24    0.50
  -5   1 -13   -0.27    0.26
   5   2 -13    1.47    0.53
  -5  -2 -13    1.06    0.54
   5  -2 -13    1.72    0.67
   5   3 -13    0.67    0.48
  -5  -3 -13   -0.27    0.62
   5  -3 -13    0.17    0.59
  -5  -4 -13   -0.28    0.64
   5   4 -13   -0.92    0.47
   5  -4 -13   -0.84    0.72
   5   0 -14   -1.10    0.50
   5   0 -14   -0.42    0.52
  -5   0 -14    0.02    0.38
  -5  -1 -14    2.50    0.54
   5   1 -14    2.70    0.62
  -5   1 -14    1.86    0.33
   5  -1 -14    1.61    0.64
  -5  -2 -14    0.13    0.55
   5   2 -14    0.98    0.63
   5  -2 -14    0.35    0.61
  -5  -3 -14    0.93    0.64
   5   3 -14    0.52    0.52
   5  -3 -14    0.51    0.65
  -5   0 -15    0.50    0.40
   5   0 -15    0.52    0.56
  -5  -1 -15   -0.08    0.50
   5   1 -15    0.37    0.59
   5   1 -15   -0.04    0.52
  -5   1 -15    0.55    0.29
   5  -1 -15    0.28    1.11
   6   0   0 1000.00   48.21
  -6   0   0  918.53   48.24
  -6  -1   0    0.16    0.24
   6  -1   0    0.48    0.17
   6   1   0    0.31    0.23
   6   2   0   83.83    4.29
  -6  -2   0   83.09    4.29
   6   3   0   -0.03    0.35
  -6  -3   0    0.47    0.34
  -6  -4   0   57.56    3.11
   6   4   0   56.67    3.10
   6  -4   0   60.24    3.05
   6   5   0    0.78    0.51
  -6  -5   0    0.70    0.49
   6  -5   0    0.68    0.38
   6  -6   0    3.83    0.56
  -6  -6   0    3.38    0.61
   6   6   0    3.09    0.59
   6   7   0   -0.13    0.57
   6  -7   0    0.03    0.51
  -6  -7   0   -0.74    0.60
  -6  -8   0    2.89    0.90
   6  -8   0    1.66    0.63
  -6   0   1   -0.16    0.22
   6   0   1   -0.21    0.17
   6   0  -1    0.34    0.22
  -6   0  -1   -0.16    0.20
   6  -1   1    2.67    0.26
   6   1  -1    3.25    0.34
  -6  -1  -1    3.54    0.34
  -6  -1   1    2.32    0.33
   6  -1  -1    2.57    0.32
   6   1   1    2.68    0.33
   6   2  -1   26.20    1.54
  -6  -2  -1   27.12    1.54
  -6  -2   1   27.82    1.56
   6   2   1   29.31    1.55
  -6  -3  -1   10.67    0.79
   6  -3   1   10.57    0.68
   6   3  -1   10.30    0.79
   6   3   1   10.86    0.83
  -6  -3   1   11.49    0.80
   6  -4   1   34.86    1.92
   6   4  -1   35.94    2.02
  -6  -4  -1   37.59    2.03
   6   4   1   35.75    2.03
   6  -4  -1   34.63    1.97
  -6  -4   1   35.90    2.01
  -6  -5  -1   23.30    1.50
   6   5  -1   21.95    1.46
   6  -5   1   22.48    1.37
   6  -5  -1   25.33    1.42
   6   5   1   23.66    1.52
  -6  -5   1   21.88    1.45
   6  -6   1    4.92    0.59
  -6  -6  -1    6.04    0.69
   6   6  -1    6.01    0.76
  -6  -6   1    5.38    0.69
   6  -6  -1    5.61    0.67
   6   6   1    4.86    0.76
   6  -7   1    5.01    0.62
   6   7  -1    3.68    0.70
  -6  -7  -1    5.53    0.79
  -6  -7   1    4.84    0.78
   6   7   1    3.73    0.78
   6  -7  -1    3.18    0.66
  -6  -8  -1    2.05    0.83
  -6  -8   1   -0.67    0.78
   6  -8  -1    0.19    0.62
  -6   0  -2   36.11    1.85
   6   0  -2   33.63    1.85
   6   0   2   35.12    1.83
  -6  -1  -2   55.38    2.75
   6   1  -2   52.10    2.75
   6  -1   2   51.75    2.69
  -6  -1   2   51.60    2.76
   6   2  -2    2.71    0.38
  -6  -2  -2    2.98    0.40
   6  -2   2    2.38    0.23
   6   2   2    2.71    0.40
  -6  -2   2    2.66    0.41
   6   3  -2   64.13    3.49
   6  -3   2   66.40    3.39
  -6  -3  -2   65.29    3.50
   6   3   2   67.17    3.51
  -6  -3   2   70.41    3.51
   6   4  -2    6.79    0.68
  -6  -4  -2    7.04    0.69
   6  -4   2    6.94    0.56
   6  -4  -2    6.23    0.61
  -6  -4   2    7.65    0.66
   6   4   2    8.15    0.75
  -6  -5  -2   13.40    1.09
   6   5  -2   12.29    1.07
   6  -5   2   14.26    0.91
  -6  -5   2   12.94    1.05
   6   5   2   14.91    1.13
   6  -5  -2   13.88    1.01
   6   6  -2    0.62    0.55
  -6  -6  -2    0.80    0.60
   6  -6   2    0.43    0.39
   6  -6  -2    0.92    0.54
   6   6   2    0.87    0.49
  -6  -6   2    0.14    0.54
   6   7  -2    9.07    0.92
  -6  -7  -2    6.86    0.93
   6  -7   2    9.86    0.85
   6  -7  -2    7.66    0.87
   6   7   2    7.55    0.97
  -6  -7   2    8.59    0.92
   6  -8   2   -0.18    0.49
  -6  -8  -2    1.91    1.06
  -6  -8   2    0.43    0.78
   6  -8  -2    0.01    0.73
   6   0   3   -0.04    0.17
   6   0  -3    0.31    0.25
  -6   0  -3    0.26    0.19
  -6  -1  -3    9.69    0.65
   6   1  -3   10.89    0.66
  -6   1  -3    9.59    0.59
  -6  -1   3   10.17    0.71
   6   1   3    9.59    0.67
   6  -2   3    7.58    0.46
  -6  -2  -3    7.60    0.64
   6   2  -3    7.97    0.58
   6   2   3    7.92    0.63
  -6  -2   3    8.06    0.65
  -6  -3  -3    1.05    0.39
   6  -3   3    0.73    0.16
   6   3  -3    1.07    0.34
   6  -3   3    1.11    0.19
   6   3   3    0.99    0.34
  -6  -3   3    1.10    0.37
   6  -4   3   17.50    0.99
   6   4  -3   16.90    1.15
  -6  -4  -3   17.00    1.13
   6  -4  -3   17.53    1.16
   6   4   3   17.70    1.22
  -6  -4   3   17.68    1.16
   6  -5   3   11.68    0.75
  -6  -5  -3    9.58    0.93
   6   5  -3   11.37    0.93
   6  -5  -3   10.43    0.94
   6   5   3   11.09    0.99
  -6  -5   3    9.42    1.00
   6   6  -3    2.47    0.61
  -6  -6  -3    3.01    0.63
   6  -6   3    3.16    0.44
  -6  -6   3    2.58    0.59
   6  -6  -3    2.73    0.62
   6   6   3    3.13    0.72
  -6  -7  -3    9.24    0.93
   6  -7   3   10.07    0.83
   6   7  -3    9.93    0.96
  -6  -7   3    9.06    0.93
   6  -7  -3    9.68    0.93
   6   7   3    9.37    1.03
   6  -8   3    0.36    0.47
  -6  -8   3   -0.71    0.75
  -6   0  -4  197.22    9.81
   6   0   4  195.30    9.81
   6   0  -4  194.67    9.85
  -6  -1  -4   11.78    0.75
   6   1  -4   12.03    0.78
   6   1   4   11.25    0.75
  -6   1  -4   11.34    0.67
  -6  -2  -4   67.07    3.57
   6  -2   4   67.44    3.45
   6   2  -4   68.79    3.58
   6   2   4   69.78    3.59
  -6  -2   4   71.30    3.59
   6  -3   4    0.18    0.10
   6   3  -4    0.04    0.33
  -6  -3  -4    2.32    0.46
   6  -3   4    0.12    0.11
  -6  -3   4    0.33    0.37
   6   3   4    0.28    0.37
  -6  -4  -4    7.71    0.72
   6   4  -4    5.60    0.61
   6  -4   4    5.01    0.38
  -6  -4   4    4.77    0.61
   6   4   4    5.53    0.60
   6  -4  -4    4.41    0.61
   6   5  -4    4.88    0.68
   6  -5   4    5.62    0.48
  -6  -5   4    6.88    0.70
   6  -5  -4    5.38    0.67
   6   5   4    6.80    0.71
   6  -6   4    1.98    0.36
   6   6  -4    2.69    0.61
  -6  -6  -4    3.16    0.72
   6   6   4    1.96    0.57
  -6  -6   4    1.91    0.58
   6  -6  -4    3.63    0.64
   6  -7   4    0.17    0.38
   6   7  -4    0.01    0.55
  -6  -7  -4    0.66    0.62
  -6  -7   4   -0.26    0.58
   6   7   4   -0.93    0.64
   6  -7  -4    0.41    0.63
   6  -8   4    2.81    0.53
  -6  -8   4    6.02    1.53
   6   0   5   -0.06    0.19
   6   0  -5    0.49    0.27
  -6   0  -5   -0.01    0.19
   6   1  -5    5.76    0.50
  -6  -1  -5    5.00    0.46
   6   1   5    4.57    0.45
  -6   1  -5    5.38    0.39
  -6  -2  -5   20.06    1.20
   6   2  -5   19.93    1.20
  -6  -2   5   19.81    1.21
   6   2   5   19.00    1.19
  -6  -3  -5    5.06    0.53
   6   3  -5    4.93    0.53
   6   3   5    4.52    0.59
  -6  -3   5    4.65    0.56
  -6  -4  -5   17.16    1.20
   6   4  -5   18.02    1.17
   6   4   5   16.74    1.21
   6  -4  -5   16.46    1.21
  -6  -4   5   15.87    1.14
  -6  -5  -5   -0.13    0.55
   6   5  -5    0.25    0.48
   6  -5   5    0.17    0.13
   6   5   5    0.03    0.50
  -6  -5   5    0.88    0.48
   6  -5  -5    0.48    0.55
   6   6  -5    8.02    0.82
   6  -6   5    7.55    0.52
  -6  -6  -5    6.35    0.87
   6   6   5    6.90    0.93
   6  -6  -5    7.94    0.88
  -6  -6   5    6.04    0.77
  -6  -7  -5    1.98    0.64
   6   7   5    1.75    0.97
   6  -7  -5    2.20    0.68
  -6  -7   5    1.05    0.61
   6  -8   5   -0.25    0.38
  -6   0  -6   13.62    0.83
   6   0   6   14.64    0.83
   6   0  -6   13.13    0.91
  -6  -1  -6    6.37    0.56
   6  -1   6    5.58    0.39
   6   1  -6    6.43    0.57
   6   1   6    6.52    0.55
  -6   1  -6    6.34    0.43
  -6  -2  -6   23.59    1.39
   6   2  -6   22.03    1.38
   6   2   6   24.75    1.40
   6   3  -6   27.81    1.61
  -6  -3  -6   25.16    1.60
   6   3   6   27.79    1.64
  -6  -3   6   28.19    1.61
  -6  -4  -6    1.60    0.52
   6   4  -6    1.54    0.49
   6  -4  -6    1.88    0.56
  -6  -4   6    1.75    0.49
   6   4   6    2.29    0.60
   6   5  -6   11.81    1.02
  -6  -5  -6    9.98    0.93
  -6  -5   6   11.97    0.97
   6   5   6   10.97    1.05
   6  -5  -6   10.82    1.04
   6   6  -6    0.04    0.51
  -6  -6  -6   -0.22    0.48
  -6  -6   6    0.33    0.53
   6   6   6    0.08    0.66
   6  -6  -6    0.12    0.57
   6   7  -6    2.19    0.64
  -6  -7  -6    1.73    0.73
   6   7   6    0.92    0.71
  -6  -7   6    0.75    0.60
   6  -7  -6    1.21    0.74
   6   0   7    0.05    0.23
  -6   0  -7    0.13    0.23
  -6  -1  -7   35.87    1.92
   6   1  -7   34.45    1.96
   6   1   7   35.83    1.92
  -6   1  -7   34.89    1.83
   6   2  -7    0.84    0.37
  -6  -2  -7    0.84    0.39
   6   2   7    0.27    0.39
  -6  -3  -7    5.51    0.63
   6   3  -7    5.91    0.64
   6   3   7    6.85    0.69
   6  -3  -7    6.62    0.73
  -6  -4  -7    9.71    0.93
   6   4  -7   10.34    0.93
   6  -4  -7   10.60    0.94
   6   4   7   10.13    0.95
  -6  -4   7    9.45    0.92
  -6  -5  -7    1.58    0.63
   6   5  -7    1.20    0.53
   6  -5  -7    1.00    0.67
  -6  -5   7    0.63    0.51
   6   5   7    0.09    0.65
   6   6  -7    0.83    0.57
  -6  -6  -7    2.00    0.73
  -6  -6   7    0.74    0.55
   6   6   7    1.04    0.68
   6  -6  -7    0.23    0.60
   6   7  -7    1.81    0.64
  -6  -7  -7    2.81    0.84
   6   7   7    1.19    0.81
   6  -7  -7    1.86    0.90
  -6   0  -8   36.67    1.95
  -6  -1  -8    1.45    0.36
   6   1  -8    1.30    0.43
   6   1   8    2.78    0.46
  -6   1  -8    1.52    0.23
   6   2  -8    8.54    0.74
  -6  -2  -8    7.76    0.73
   6   2   8    9.18    0.80
  -6  -3  -8    3.35    0.60
   6   3  -8    3.49    0.55
   6   3   8    2.81    0.60
   6  -3  -8    4.15    0.58
  -6  -4  -8    0.89    0.50
   6   4  -8    0.16    0.46
   6   4   8   -0.16    0.57
   6  -4  -8    0.37    0.61
   6   5  -8    2.10    0.55
  -6  -5  -8    1.26    0.65
   6   5   8    0.69    0.68
   6  -5  -8    1.33    0.56
  -6  -6  -8    0.42    0.62
   6   6  -8   -0.05    0.54
   6  -6  -8    0.69    0.76
  -6  -6   8    1.10    0.53
   6   6   8    1.03    0.77
   6   7  -8    0.62    0.58
  -6  -7  -8    0.58    0.73
  -6  -7   8    1.18    0.67
   6   7   8    1.29    0.86
  -6   0  -9    0.06    0.27
  -6  -1  -9    0.75    0.35
   6   1  -9    0.38    0.42
  -6   1  -9    0.73    0.21
   6   2  -9    5.23    0.61
  -6  -2  -9    5.09    0.60
   6   2   9    3.90    0.59
   6   3  -9    0.37    0.45
  -6  -3  -9    0.68    0.47
   6  -3  -9    1.65    0.55
   6   3   9    1.12    0.51
   6   4  -9   12.46    1.05
  -6  -4  -9   12.54    1.10
   6   4   9   13.91    1.18
   6  -4  -9   14.25    1.23
   6   5  -9    2.30    0.58
  -6  -5  -9    1.18    0.71
   6  -5  -9    1.34    0.77
   6   5   9    3.31    0.77
   6   6  -9    2.27    0.62
  -6  -6  -9    0.96    0.76
   6   6   9    2.37    0.85
   6  -6  -9    1.24    0.81
  -6   0 -10    2.95    0.39
   6   1 -10   12.61    0.96
  -6  -1 -10   12.06    0.89
  -6   1 -10   10.84    0.71
  -6  -2 -10    1.73    0.49
   6   2 -10    2.04    0.51
   6   3 -10    1.33    0.51
  -6  -3 -10    2.02    0.56
   6  -3 -10    1.49    0.64
  -6  -4 -10    1.64    0.68
   6   4 -10    0.19    0.49
   6   4  10    0.17    0.80
   6  -4 -10    0.68    0.62
   6   5 -10    9.45    0.86
  -6  -5 -10    8.23    1.00
   6  -5 -10    8.04    1.01
  -6  -6 -10    1.01    0.81
   6   6 -10    0.53    0.54
   6  -6 -10    1.05    0.80
  -6   0 -11    0.12    0.31
   6   0 -11    0.57    0.50
  -6  -1 -11   18.88    1.21
   6   1 -11   18.49    1.27
  -6   1 -11   17.36    1.02
  -6  -2 -11    0.02    0.47
   6   2 -11    0.05    0.46
   6  -2 -11   -0.20    0.55
  -6  -3 -11    1.16    0.56
   6   3 -11    1.01    0.52
   6  -3 -11    2.14    0.69
  -6  -4 -11    3.64    0.76
   6   4 -11    3.67    0.62
   6  -4 -11    2.82    0.81
   6   5 -11   -0.15    0.50
  -6  -5 -11    0.34    0.70
   6  -5 -11   -0.95    0.84
  -6   0 -12    8.94    0.73
   6   0 -12    7.92    0.83
   6   1 -12   -0.02    0.49
  -6   1 -12    0.40    0.25
  -6  -2 -12    6.37    0.73
   6   2 -12    3.80    0.66
   6  -2 -12    4.92    0.85
  -6  -3 -12    0.37    0.57
   6   3 -12   -0.46    0.49
   6  -3 -12    0.32    0.65
   6   4 -12   -0.44    0.49
  -6  -4 -12   -0.24    0.65
   6  -4 -12   -0.29    0.75
   6   5 -12    2.31    0.59
  -6  -5 -12    2.97    0.85
   6  -5 -12    2.10    0.75
  -6   0 -13   -0.14    0.35
   6   0 -13   -0.41    0.52
   6   1 -13    0.61    0.53
   6  -1 -13    0.79    0.55
  -6   1 -13    0.27    0.26
  -6  -2 -13    3.27    0.65
   6   2 -13    3.32    0.64
   6  -2 -13    3.00    0.73
   6   3 -13   -0.35    0.58
  -6  -3 -13   -0.60    0.60
   6  -3 -13   -0.76    0.60
   6   4 -13    1.27    0.60
  -6  -4 -13    1.79    0.70
   6  -4 -13    0.32    0.81
   6   0 -14    1.33    0.59
  -6   0 -14    0.49    0.38
   6   0 -14    1.15    0.62
  -6  -1 -14    0.83    0.58
   6   1 -14    0.81    0.58
  -6   1 -14    0.42    0.31
   6  -1 -14    1.30    1.14
   6   2 -14    0.25    0.53
  -6  -2 -14    0.00    0.54
   6  -2 -14   -0.34    0.65
   6   3 -14    2.26    0.61
  -6  -3 -14    2.23    0.68
   6  -3 -14    1.64    0.71
   6   0 -15   -0.35    0.54
  -6   0 -15   -0.21    0.37
   6  -1 -15    2.99    0.69
  -6   1 -15    2.63    0.34
  -6   1 -15    2.40    0.32
   7   0   0    0.13    0.21
  -7   0   0    0.04    0.26
  -7  -1   0    1.90    0.33
   7   1   0    1.92    0.31
   7  -1   0    1.96    0.25
   7   2   0   36.99    2.07
  -7  -2   0   39.52    2.09
   7   3   0    4.22    0.56
  -7  -3   0    4.87    0.54
   7   4   0   30.34    1.73
  -7  -4   0   28.21    1.65
   7  -4   0   27.13    1.60
   7  -5   0    1.33    0.43
  -7  -5   0    1.86    0.65
   7   5   0    1.32    0.55
   7  -6   0    7.00    0.70
  -7  -6   0    5.50    0.79
   7   6   0    6.61    0.80
  -7  -7   0    1.39    0.65
   7   7   0    1.09    0.58
   7  -7   0    1.50    0.56
   7  -8   0    0.99    0.60
  -7   0  -1   66.93    3.42
   7   0   1   67.80    3.41
   7   0  -1   65.61    3.42
  -7   0   1   65.00    3.45
  -7  -1  -1   30.41    1.72
   7  -1   1   29.26    1.57
   7   1  -1   29.87    1.63
  -7  -1   1   29.96    1.66
   7   1   1   29.20    1.63
   7  -1  -1   29.68    1.60
   7   2  -1    7.20    0.58
  -7  -2  -1    7.98    0.66
   7  -2   1    7.26    0.52
  -7  -2   1    7.49    0.60
   7   2   1    7.97    0.67
   7   3  -1   84.22    4.34
  -7  -3  -1   83.54    4.32
   7   3   1   81.25    4.33
  -7  -3   1   84.30    4.34
  -7  -4  -1    2.12    0.49
   7  -4   1    1.92    0.36
   7   4  -1    2.76    0.57
   7  -4  -1    2.51    0.42
   7   4   1    1.31    0.45
  -7  -4   1    2.10    0.51
   7   5  -1    7.39    0.78
   7  -5   1    6.97    0.62
  -7  -5   1    6.34    0.77
   7   5   1    6.13    0.76
   7  -5  -1    7.75    0.70
  -7  -6  -1   15.83    1.26
   7   6  -1   13.00    1.23
   7  -6   1   14.74    1.06
  -7  -6   1   14.93    1.23
   7  -6  -1   14.67    1.13
   7   6   1   14.76    1.26
   7   7  -1    2.93    0.67
   7  -7   1    3.04    0.58
  -7  -7  -1    3.33    0.75
   7  -7  -1    3.12    0.64
   7   7   1    2.49    0.74
  -7  -7   1    3.20    0.71
   7  -8   1    1.77    0.59
   7  -8  -1    4.59    0.81
   7   0   2   -0.08    0.20
  -7   0  -2   -0.09    0.23
   7   0  -2    0.40    0.27
   7   1  -2  164.79    8.25
   7  -1   2  160.63    8.19
  -7  -1  -2  160.17    8.24
  -7  -1   2  166.12    8.26
   7   1   2  162.01    8.24
   7  -1  -2  166.34    8.24
   7  -2   2    2.98    0.28
   7   2  -2    2.36    0.41
  -7  -2  -2    2.94    0.41
  -7  -2   2    1.74    0.42
   7   2   2    2.61    0.41
   7   3  -2   14.19    1.01
  -7  -3  -2   12.53    0.99
  -7  -3   2   13.90    1.01
   7   3   2   17.01    1.04
   7  -4   2    3.35    0.38
   7   4  -2    3.15    0.57
  -7  -4  -2    3.53    0.56
  -7  -4   2    3.25    0.56
   7   4   2    3.06    0.48
   7  -4  -2    3.15    0.50
   7  -5   2    1.46    0.35
   7   5  -2   -0.22    0.48
   7   5   2    1.83    0.50
  -7  -5   2    1.12    0.48
   7  -5  -2    1.21    0.49
  -7  -6  -2    0.36    0.46
   7  -6   2   -0.06    0.38
   7   6  -2   -0.22    0.55
  -7  -6   2    0.34    0.54
   7   6   2   -0.28    0.55
   7  -6  -2    0.16    0.49
   7  -7   2    4.27    0.58
   7   7  -2    5.39    0.83
  -7  -7  -2    3.95    0.82
  -7  -7   2    3.52    0.70
   7  -7  -2    4.58    0.71
   7   7   2    5.24    0.88
   7  -8   2    0.78    0.58
   7  -8  -2    1.84    0.82
   7   0  -3   17.30    1.04
   7   0   3   17.27    0.99
  -7   0  -3   16.72    1.00
  -7  -1  -3    5.41    0.47
   7  -1   3    5.35    0.42
   7   1  -3    5.97    0.53
   7   1   3    6.04    0.53
  -7   1  -3    5.11    0.43
  -7  -1   3    6.39    0.57
  -7  -2  -3   59.10    3.16
   7   2  -3   59.40    3.16
  -7  -2   3   60.89    3.17
   7   2   3   61.31    3.17
  -7  -3  -3   14.84    1.06
   7   3  -3   16.08    1.05
   7  -3   3   14.82    0.86
   7   3   3   14.13    1.07
  -7  -3   3   16.55    1.01
   7  -4   3    2.74    0.32
  -7  -4  -3    3.24    0.50
   7   4  -3    2.80    0.54
   7  -4  -3    3.13    0.50
   7   4   3    2.74    0.57
  -7  -4   3    2.68    0.54
  -7  -5  -3   25.05    1.57
   7  -5   3   24.09    1.39
   7   5  -3   24.17    1.59
   7   5   3   26.03    1.63
  -7  -5   3   26.46    1.58
   7  -5  -3   23.77    1.54
  -7  -6  -3    2.19    0.74
   7  -6   3    2.68    0.49
   7   6  -3    2.05    0.58
  -7  -6   3    2.22    0.61
   7  -6  -3    2.36    0.57
   7   6   3    2.10    0.69
   7  -7   3    0.26    0.40
  -7  -7  -3    1.53    0.75
  -7  -7   3    0.63    0.62
   7  -7  -3    0.57    0.57
   7   7   3    0.70    0.81
   7  -8   3    1.22    0.52
   7   0   4   -0.08    0.21
  -7   0  -4    0.10    0.21
   7   0  -4    0.32    0.29
   7   1  -4   14.07    0.89
  -7  -1  -4   13.57    0.85
  -7   1  -4   12.30    0.77
   7   1   4   13.60    1.11
   7   2  -4   52.87    2.81
  -7  -2  -4   55.02    2.81
   7  -2   4   52.33    2.67
   7   2   4   52.10    2.81
  -7  -2   4   51.76    2.83
   7  -3   4    6.01    0.39
   7   3  -4    6.84    0.66
  -7  -3  -4    6.77    0.61
   7  -3   4    6.35    0.40
   7   3   4    6.91    0.67
  -7  -3   4    6.36    0.65
  -7  -4  -4   15.08    1.10
   7  -4   4   13.53    0.77
   7  -4   4   13.58    0.76
   7   4  -4   14.78    1.05
   7  -4  -4   12.56    0.96
  -7  -4   4   13.15    1.05
   7   4   4   14.26    1.11
   7  -5   4    4.05    0.37
   7   5  -4    3.83    0.66
  -7  -5  -4    4.17    0.69
   7   5   4    4.13    0.71
   7  -5  -4    3.22    0.65
  -7  -5   4    4.49    0.65
   7   6  -4   11.41    1.04
   7  -6   4   12.35    0.81
  -7  -6  -4   11.86    1.11
  -7  -6   4   11.64    1.04
   7   6   4   12.97    1.11
   7  -6  -4   13.26    1.15
  -7  -7  -4    0.25    0.83
   7  -7   4    0.21    0.34
   7   7  -4    0.07    0.70
  -7  -7   4   -0.85    0.59
   7  -7  -4    0.45    0.76
   7   7   4   -0.92    0.71
   7  -8   4    1.12    0.49
   7   0  -5   13.78    0.92
   7   0   5   12.24    0.81
  -7   0  -5   14.47    0.83
   7   1  -5    5.02    0.50
  -7  -1  -5    5.81    0.50
  -7   1  -5    4.74    0.41
   7  -2   5   31.47    1.63
   7   2  -5   32.15    1.81
  -7  -2  -5   34.30    1.82
  -7  -2   5   32.30    1.84
   7   2   5   32.09    1.82
   7   3  -5   40.43    2.16
  -7  -3  -5   35.39    2.15
  -7  -3   5   40.09    2.16
   7   3   5   37.70    2.13
  -7  -4  -5    2.71    0.58
   7   4  -5    2.05    0.53
  -7  -4   5    3.20    0.54
   7  -4  -5    2.76    0.53
   7   4   5    1.75    0.56
   7   5  -5    6.03    0.74
  -7  -5  -5    7.13    0.86
   7  -5   5    5.71    0.32
   7   5   5    6.23    0.83
  -7  -5   5    6.75    0.73
   7  -5  -5    5.56    0.76
  -7  -6  -5    4.23    0.79
   7  -6   5    3.20    0.29
   7   6  -5    3.48    0.68
  -7  -6   5    3.24    0.66
   7   6   5    4.40    0.83
   7  -6  -5    2.25    0.65
   7   7  -5    0.76    0.65
  -7  -7  -5    1.52    0.94
   7  -7  -5    0.88    0.69
   7   7   5    1.40    0.82
   7   0   6   -0.11    0.23
  -7   0  -6   -0.07    0.24
   7   0  -6    0.42    0.32
   7  -1   6   49.24    2.65
  -7  -1  -6   51.64    2.74
   7   1  -6   53.51    2.78
  -7   1  -6   54.37    2.68
   7   1   6   52.34    2.80
   7   2  -6    0.13    0.38
  -7  -2  -6   -0.29    0.32
   7   2   6    0.08    0.39
   7   3  -6    2.72    0.50
  -7  -3  -6    2.56    0.52
   7   3   6    2.28    0.53
  -7  -3   6    2.66    0.50
  -7  -4  -6   10.61    0.94
   7   4  -6   11.24    0.95
   7   4   6   10.00    0.89
  -7  -4   6   10.52    0.93
   7  -4  -6   10.74    0.97
   7   5  -6    1.83    0.57
  -7  -5  -6    2.13    0.64
   7  -5  -6    0.53    0.61
   7   5   6    1.61    0.69
  -7  -5   6    1.79    0.55
  -7  -6  -6    1.44    0.71
   7   6  -6    0.51    0.59
  -7  -6   6    0.84    0.59
   7   6   6    1.26    0.66
   7  -6  -6    0.42    0.55
   7   7  -6    5.64    0.83
  -7  -7  -6    5.55    0.93
   7   7   6    5.53    0.92
  -7  -7   6    5.56    0.81
   7  -7  -6    5.51    0.91
  -7   0  -7   15.57    0.95
   7   0  -7   16.38    1.10
   7   0   7   15.95    0.95
  -7  -1  -7    1.31    0.34
   7  -1   7    1.19    0.20
   7   1  -7    1.48    0.40
   7   1   7    1.50    0.42
  -7   1  -7    1.65    0.25
   7   2  -7    6.21    0.67
  -7  -2  -7    8.01    0.67
   7   2   7    7.62    0.68
   7   3  -7   22.33    1.41
  -7  -3  -7   21.84    1.43
   7   3   7   22.50    1.45
  -7  -4  -7    3.15    0.66
   7   4  -7    3.65    0.62
  -7  -4   7    3.97    0.60
   7   4   7    4.51    0.71
   7  -4  -7    4.53    0.66
   7   5  -7    7.31    0.80
  -7  -5  -7    7.73    0.80
  -7  -5   7    6.28    0.75
   7   5   7    6.07    0.90
   7  -5  -7    6.45    0.92
   7   6  -7    1.88    0.64
  -7  -6  -7    3.41    0.72
   7   6   7    2.97    0.78
  -7  -6   7    2.96    0.65
   7  -6  -7    1.92    0.65
  -7  -7  -7    1.42    0.68
   7   7  -7    0.95    0.64
  -7  -7   7    1.03    0.66
   7   7   7    1.33    0.84
   7   0  -8    0.22    0.39
  -7   0  -8    0.17    0.26
   7   0   8   -0.21    0.25
  -7  -1  -8    3.66    0.47
   7   1  -8    3.57    0.55
  -7   1  -8    3.73    0.35
   7   1   8    7.01    0.69
   7   2  -8   15.84    1.12
  -7  -2  -8   16.91    1.11
   7   2   8   15.54    1.13
   7   3  -8    2.47    0.53
  -7  -3  -8    2.46    0.53
   7   3   8    2.72    0.55
  -7  -4  -8    9.43    0.87
   7   4  -8    9.21    0.85
   7   4   8    8.27    0.93
   7  -4  -8    8.09    0.94
   7   5  -8    0.29    0.52
  -7  -5  -8    0.27    0.65
   7   5   8    0.16    0.68
   7  -5  -8    0.14    0.57
   7   6  -8    3.44    0.72
  -7  -6  -8    4.21    0.85
  -7  -6   8    4.42    0.69
   7  -6  -8    3.54    0.80
   7   6   8    3.46    0.96
  -7  -7  -8   -0.25    0.78
  -7  -7   8    0.45    0.69
   7   7   8    0.78    0.82
   7   0  -9   16.06    1.11
  -7   0  -9   14.55    0.94
   7   1  -9    1.25    0.48
  -7  -1  -9    1.26    0.39
  -7   1  -9    1.03    0.24
   7   1   9    1.94    0.67
   7   2  -9   24.90    1.57
  -7  -2  -9   24.87    1.54
   7   2   9   26.62    1.58
  -7  -3  -9    0.95    0.54
   7   3  -9    0.89    0.48
   7   3   9    0.33    0.56
   7  -3  -9    1.88    0.64
   7   4  -9   -0.16    0.49
  -7  -4  -9    0.57    0.61
   7  -4  -9   -0.03    0.49
   7   4   9    0.75    0.65
   7   5  -9    3.46    0.67
  -7  -5  -9    3.93    0.77
   7  -5  -9    3.79    0.83
   7   5   9    4.05    0.82
   7   6  -9    0.42    0.58
  -7  -6  -9   -0.13    0.64
   7   6   9    0.53    0.79
   7  -6  -9   -0.25    0.74
  -7   0 -10    0.11    0.32
   7   0 -10    0.29    0.48
  -7  -1 -10   12.54    0.91
   7   1 -10   11.50    0.99
  -7   1 -10   11.09    0.73
  -7  -2 -10    1.05    0.49
   7   2 -10    0.90    0.49
   7   3 -10    1.53    0.52
  -7  -3 -10    2.01    0.57
   7  -3 -10    1.28    0.66
   7   3  10    1.80    0.60
   7   4 -10    4.29    0.69
   7   4  10    6.06    0.86
   7  -4 -10    6.20    0.88
  -7  -5 -10    0.92    0.62
   7   5 -10    0.71    0.55
   7   5  10    2.66    0.77
   7  -5 -10    0.78    0.71
   7   6 -10    0.21    0.57
   7   0 -11    4.14    0.66
  -7   0 -11    4.02    0.46
   7   1 -11   17.42    1.26
  -7  -1 -11   17.58    1.17
  -7   1 -11   17.33    1.00
  -7  -2 -11    3.39    0.59
   7   2 -11    1.75    0.57
  -7  -3 -11    0.81    0.56
   7   3 -11    1.07    0.55
   7  -3 -11    0.22    0.66
  -7  -4 -11    1.43    0.68
   7   4 -11    1.49    0.58
   7  -4 -11    0.88    0.76
  -7  -5 -11    6.40    0.87
   7   5 -11    7.13    0.84
   7  -5 -11    7.94    1.07
  -7   0 -12   -0.12    0.35
   7   0 -12    0.49    0.53
  -7  -1 -12    0.40    0.52
   7   1 -12    0.61    0.53
  -7   1 -12    0.36    0.26
  -7  -2 -12    3.67    0.63
   7   2 -12    2.76    0.61
   7  -2 -12    3.03    0.68
  -7  -3 -12    1.94    0.65
   7   3 -12    0.63    0.54
   7  -3 -12    1.50    0.75
  -7  -4 -12    1.61    0.71
   7   4 -12    1.04    0.64
   7  -4 -12    1.92    0.81
   7   5 -12   -0.27    0.56
  -7  -5 -12    0.70    0.68
   7  -5 -12    0.28    0.72
  -7   0 -13    4.63    0.52
  -7  -2 -13    1.18    0.56
   7   2 -13    1.52    0.69
   7  -2 -13    2.06    0.70
  -7  -3 -13    0.82    0.64
   7   3 -13    0.63    0.56
   7  -3 -13    0.38    0.67
   7   4 -13   -0.30    0.55
  -7  -4 -13   -0.11    0.68
   7  -4 -13   -0.59    0.83
   7   0 -14    0.92    0.66
  -7   0 -14   -0.30    0.36
   7   1 -14    3.58    0.70
  -7  -1 -14    2.12    0.96
   7  -1 -14    2.61    0.73
  -7   1 -14    2.03    0.31
  -7  -2 -14    0.10    0.54
   7   2 -14    0.82    0.58
   7  -2 -14    0.88    0.72
   7   3 -14    0.26    0.79
  -7  -3 -14   -0.51    0.59
   7  -3 -14   -0.58    0.62
  -8   0   0  457.30   23.06
  -8  -1   0    0.24    0.32
   8  -1   0    0.82    0.29
   8   1   0    0.10    0.29
  -8  -2   0  147.75    7.40
   8  -2   0  141.18    7.32
   8   2   0  146.94    7.39
  -8  -3   0    0.67    0.41
   8   3   0    0.27    0.41
   8  -4   0   12.18    0.88
  -8  -4   0   12.80    0.99
   8   4   0   11.76    1.03
   8   5   0    1.43    0.60
   8  -5   0    0.57    0.41
  -8  -5   0    0.26    0.42
   8  -6   0    0.91    0.48
  -8  -6   0    0.20    0.56
   8   6   0    1.01    0.58
   8  -7   0    0.00    0.53
  -8  -7   0    0.29    0.64
   8   7   0    0.35    0.65
   8  -8   0    2.73    0.74
   8   0  -1    0.15    0.26
  -8   0  -1    0.13    0.27
  -8   0   1    0.19    0.23
   8   0   1    0.32    0.24
   8   1  -1   10.97    0.76
  -8  -1  -1   10.57    0.77
   8  -1   1    9.66    0.66
  -8  -1   1   10.19    0.80
   8  -1  -1   10.07    0.70
   8   1   1   11.57    0.76
   8  -2   1   19.58    1.07
  -8  -2  -1   18.18    1.16
   8   2  -1   17.89    1.17
  -8  -2   1   18.93    1.20
   8   2   1   18.98    1.19
  -8  -3  -1    4.57    0.50
   8   3  -1    3.57    0.47
   8   3   1    2.80    0.46
  -8  -3   1    2.83    0.50
  -8  -4  -1   31.17    1.75
   8  -4   1   28.25    1.59
   8   4  -1   26.85    1.73
  -8  -4   1   28.23    1.71
   8  -4  -1   28.19    1.64
   8   4   1   28.48    1.74
   8   5  -1    5.81    0.72
  -8  -5  -1    6.18    0.69
   8  -5   1    4.96    0.57
   8  -5  -1    5.57    0.64
  -8  -5   1    6.90    0.73
   8   5   1    5.42    0.73
   8   6  -1    5.82    0.84
   8  -6   1    5.98    0.64
  -8  -6  -1    6.23    0.78
   8   6   1    5.59    0.83
  -8  -6   1    5.44    0.75
   8  -6  -1    5.84    0.70
  -8  -7  -1    3.91    0.83
   8  -7   1    5.76    0.66
   8   7  -1    3.45    0.96
  -8  -7   1    4.02    0.81
   8   7   1    4.28    0.98
   8  -7  -1    4.78    0.70
   8  -8   1    0.02    0.63
   8  -8  -1    0.83    0.74
  -8   0  -2   10.33    0.71
   8   0   2   10.23    0.69
   8   0  -2   10.14    0.69
   8  -1   2   13.79    0.82
   8   1  -2   13.76    0.91
  -8  -1  -2   14.23    0.91
   8  -1  -2   12.92    0.88
   8   1   2   13.84    0.89
  -8  -1   2   14.04    0.96
   8  -2   2    6.82    0.49
  -8  -2  -2    6.35    0.61
   8   2  -2    7.14    0.59
   8   2   2    6.11    0.61
  -8  -2   2    7.13    0.66
   8   3  -2   41.11    2.21
   8  -3   2   37.58    2.05
  -8  -3  -2   40.46    2.19
  -8  -3   2   40.12    2.18
   8   3   2   38.31    2.21
  -8  -4  -2    2.90    0.56
   8   4  -2    3.13    0.53
   8  -4   2    2.53    0.37
   8  -4  -2    3.39    0.49
  -8  -4   2    2.46    0.55
   8   4   2    2.89    0.51
  -8  -5  -2   30.68    1.94
   8   5  -2   30.06    1.93
   8  -5   2   32.58    1.76
  -8  -5   2   31.70    1.92
   8   5   2   31.27    1.89
   8  -5  -2   32.13    1.87
   8  -6   2    0.76    0.42
  -8  -6  -2    0.27    0.63
   8   6  -2    1.16    0.62
  -8  -6   2    0.49    0.51
   8  -6  -2    0.37    0.53
   8   6   2    0.55    0.62
   8   7  -2    0.49    0.62
  -8  -7  -2    2.10    0.91
   8  -7   2    1.88    0.49
  -8  -7   2    3.02    0.99
   8   7   2    1.82    0.92
   8  -7  -2    1.99    0.63
   8  -8   2    0.36    1.04
   8   0  -3    0.08    0.24
   8   0   3   -0.19    0.24
  -8   0  -3    0.05    0.25
   8   1  -3    9.39    0.74
   8  -1   3   10.05    0.62
   8  -1  -3    9.57    0.66
   8   1   3    8.76    0.70
  -8  -1   3    8.28    0.77
  -8   1  -3    8.84    0.63
  -8  -2  -3    7.89    0.67
   8  -2   3    7.64    0.52
   8   2  -3    7.51    0.65
  -8  -2   3    7.65    0.70
   8   2   3    8.41    0.65
   8   3  -3    0.16    0.40
  -8  -3  -3    0.97    0.36
  -8  -3   3    0.13    0.33
   8   3   3    0.35    0.43
  -8  -4  -3    8.62    0.80
   8  -4   3    9.57    0.65
  -8  -4   3    9.55    0.87
   8   4   3    9.41    0.83
   8  -4  -3    9.38    0.85
   8  -5   3   12.16    0.82
  -8  -5  -3   12.89    1.11
   8   5  -3   11.71    1.07
   8  -5  -3   13.39    1.07
   8   5   3   13.01    1.15
  -8  -5   3   11.32    1.02
   8   6  -3    6.12    0.77
   8  -6   3    5.54    0.60
  -8  -6  -3    9.17    0.93
   8   6   3    4.68    0.84
   8  -6  -3    5.27    0.73
  -8  -6   3    6.13    0.81
   8  -7   3    4.54    0.55
   8   7  -3    3.90    0.77
   8   7   3    3.75    0.86
   8  -8   3    1.04    0.52
   8   0  -4  156.38    7.67
  -8   0  -4  148.61    7.62
   8   0   4  148.05    7.61
   8   1  -4    9.68    0.75
   8  -1   4    8.52    0.59
  -8  -1  -4    9.06    0.69
   8   1   4    9.07    0.70
  -8   1  -4    9.11    0.62
   8   2  -4   52.24    2.73
   8  -2   4   49.63    2.59
  -8  -2  -4   49.23    2.71
   8   2   4   51.19    2.74
  -8  -2   4   52.49    2.76
   8   3  -4    0.17    0.32
   8  -3   4   -0.20    0.16
   8  -3   4   -0.02    0.15
  -8  -3  -4    0.29    0.40
  -8  -3   4   -0.08    0.39
   8   3   4   -0.25    0.37
   8  -4   4    4.30    0.37
  -8  -4  -4    3.85    0.64
   8   4  -4    4.22    0.64
   8  -4   4    3.88    0.33
   8   4   4    3.85    0.67
  -8  -4   4    3.53    0.62
   8  -4  -4    3.54    0.60
  -8  -5  -4    3.26    0.74
   8   5  -4    3.11    0.66
   8  -5   4    2.75    0.29
   8  -5   4    2.97    0.33
  -8  -5   4    3.03    0.64
   8  -5  -4    3.61    0.64
   8   5   4    3.33    0.70
  -8  -6  -4    1.57    0.56
   8  -6   4    1.37    0.32
   8   6  -4    1.97    0.61
   8  -6  -4    1.57    0.65
   8   6   4    0.35    0.60
  -8  -6   4    0.98    0.58
   8  -7   4    0.01    0.34
   8   7  -4   -0.52    0.59
  -8  -7  -4   -1.99    0.73
   8  -7  -4   -0.26    0.61
  -8  -7   4   -0.31    0.64
   8   7   4   -0.08    0.67
  -8   0  -5    0.28    0.27
   8   0  -5    0.07    0.30
   8   0   5   -0.25    0.23
   8   1  -5    5.70    0.56
  -8  -1  -5    5.97    0.53
  -8   1  -5    5.94    0.48
   8   1   5    5.67    0.53
  -8  -2  -5   14.16    0.91
   8   2  -5   11.64    0.91
   8  -2   5   12.14    0.67
  -8  -2   5   11.00    0.92
   8   2   5   11.77    0.91
   8   3  -5    7.05    0.72
  -8  -3  -5    7.19    0.71
  -8  -3   5    7.42    0.74
   8   3   5    6.75    0.74
  -8  -4  -5   21.27    1.44
   8   4  -5   19.72    1.39
  -8  -4   5   22.60    1.44
   8   4   5   22.69    1.48
   8  -4  -5   19.78    1.38
  -8  -5  -5    4.12    0.74
   8   5  -5    2.60    0.64
   8  -5  -5    3.38    0.65
   8   5   5    3.49    0.76
  -8  -5   5    3.90    0.68
  -8  -6  -5    1.50    0.58
   8  -6   5    1.63    0.20
   8  -6   5    1.41    0.17
   8   6  -5    1.93    0.63
   8   6   5    0.85    0.74
   8  -6  -5    0.98    0.60
  -8  -6   5    1.91    0.66
  -8  -7  -5    0.53    0.69
   8  -7   5    0.10    0.29
   8   7  -5    0.70    0.66
   8  -7   5    0.17    0.17
   8   7   5   -0.65    0.75
  -8  -7   5   -0.26    0.61
   8  -7  -5    0.18    0.64
  -8   0  -6    5.00    0.46
   8   0  -6    5.20    0.60
   8   0   6    5.96    0.51
   8   1  -6    5.07    0.52
   8  -1   6    4.09    0.37
  -8  -1  -6    4.88    0.49
  -8   1  -6    4.02    0.38
   8   1   6    4.33    0.48
  -8  -2  -6   11.19    0.86
   8  -2   6   11.07    0.57
   8   2  -6   10.91    0.88
   8   2   6   11.77    0.89
  -8  -3  -6   24.39    1.52
   8   3  -6   23.25    1.50
   8   3   6   25.03    1.54
  -8  -3   6   23.80    1.52
  -8  -4  -6    0.39    0.55
   8   4  -6    0.88    0.49
   8  -4  -6    0.52    0.55
  -8  -4   6    0.72    0.52
   8   4   6    0.95    0.55
  -8  -5  -6    7.88    0.89
   8   5  -6    6.15    0.78
   8  -5  -6    6.68    0.85
   8   5   6    5.43    0.88
  -8  -5   6    6.10    0.79
  -8  -6  -6    0.50    0.63
   8   6  -6   -0.39    0.59
  -8  -6   6    0.25    0.60
   8  -6  -6   -0.57    0.52
   8   6   6    0.18    0.66
  -8  -7  -6    2.59    0.74
   8   7  -6    3.50    0.79
   8  -7  -6    2.32    1.07
  -8  -7   6    3.27    0.79
   8   7   6    2.48    0.78
   8   0  -7    0.10    0.41
  -8   0  -7    0.02    0.27
   8   0   7   -0.08    0.27
  -8  -1  -7   27.58    1.65
   8  -1   7   27.65    1.53
   8   1  -7   32.45    1.74
   8   1   7   31.35    1.78
  -8   1  -7   28.98    1.57
  -8  -2  -7    2.59    0.49
   8   2   7    2.03    0.48
   8   3  -7    3.33    0.57
  -8  -3  -7    3.74    0.61
   8   3   7    3.31    0.56
   8   4  -7    5.74    0.71
  -8  -4  -7    6.45    0.78
   8   4   7    4.50    0.70
   8  -4  -7    4.64    0.74
  -8  -4   7    5.61    0.72
  -8  -5  -7    0.83    0.62
   8   5  -7   -0.02    0.56
  -8  -5   7    1.07    0.56
   8  -5  -7    0.69    0.66
   8   5   7    0.89    0.71
   8   6  -7    0.48    0.71
  -8  -6  -7    0.71    0.72
  -8  -6   7    1.05    0.61
   8   6   7    0.47    0.70
  -8  -7  -7    4.94    0.93
  -8  -7   7    6.29    0.93
   8   7   7    3.86    1.01
  -8   0  -8   21.83    1.27
   8   0  -8   22.39    1.41
   8   0   8   22.00    1.26
  -8  -1  -8    0.16    0.35
   8   1  -8    0.44    0.45
  -8   1  -8    0.28    0.24
  -8  -2  -8    8.08    0.73
   8   2  -8    7.60    0.77
   8   2   8    7.72    0.74
   8   3  -8    2.16    0.55
  -8  -3  -8    2.17    0.51
   8   3   8    2.20    0.61
  -8  -4  -8    0.35    0.51
   8   4  -8   -0.02    0.50
   8  -4  -8    0.57    0.63
   8   4   8   -0.23    0.60
  -8  -5  -8    2.09    0.70
   8   5  -8    1.18    0.62
   8   5   8    1.68    0.75
   8  -5  -8    1.31    0.65
  -8  -6  -8    4.23    0.76
   8   6  -8    5.15    0.81
  -8  -6   8    5.77    0.89
   8   6   8    5.72    1.05
   8  -6  -8    4.36    0.88
  -8   0  -9    0.42    0.30
   8   0  -9   -0.12    0.46
   8   1  -9    1.26    0.50
  -8  -1  -9    0.38    0.39
  -8   1  -9    1.19    0.27
   8   2  -9    8.48    0.77
  -8  -2  -9    6.67    0.72
   8   2   9    7.33    0.75
   8   3  -9    1.40    0.52
  -8  -3  -9    0.96    0.55
   8   3   9    0.10    0.52
   8   4  -9    6.20    0.77
  -8  -4  -9    6.53    0.84
   8  -4  -9    6.48    0.80
   8   5  -9    0.50    0.60
  -8  -5  -9    0.19    0.59
   8  -5  -9    1.00    0.74
   8   5   9   -0.32    0.69
  -8  -6  -9    1.59    0.80
   8   6  -9    2.64    0.70
   8  -6  -9    1.01    0.85
   8   6   9    2.37    0.92
   8   0 -10    0.94    0.53
  -8   0 -10    1.09    0.34
  -8  -1 -10    3.16    0.50
   8   1 -10    2.96    0.59
  -8   1 -10    2.90    0.35
  -8  -2 -10    0.24    0.46
   8   2 -10   -0.09    0.50
   8   2  10    0.12    0.45
   8   3 -10    6.49    0.77
  -8  -3 -10    6.33    0.79
   8   3  10    7.30    0.81
   8  -3 -10    7.70    0.93
  -8  -4 -10   -0.75    0.68
   8   4 -10    0.11    0.56
   8   4  10   -0.17    0.65
   8  -4 -10   -0.86    0.61
   8   5 -10    2.09    0.68
  -8  -5 -10    1.84    0.77
   8   5  10    2.91    0.77
  -8  -6 -10    1.07    0.77
   8   6  10    0.82    0.90
   8   0 -11    0.39    0.48
  -8   0 -11    0.07    0.33
  -8  -1 -11   11.34    0.95
   8   1 -11   13.51    1.10
  -8   1 -11   12.37    0.77
   8   2 -11    1.27    0.56
  -8  -2 -11    1.11    0.52
   8   3 -11    2.36    0.59
  -8  -3 -11    3.05    0.66
   8  -3 -11    2.48    0.76
   8   4 -11    0.25    0.86
  -8  -4 -11    0.38    0.62
   8  -4 -11    0.48    0.73
   8   4  11    0.77    0.66
  -8  -5 -11   -0.74    0.69
   8   5 -11   -0.06    0.61
   8  -5 -11   -0.28    0.82
   8   0 -12    7.40    0.85
  -8   0 -12    6.84    0.61
   8   1 -12    0.17    0.55
  -8  -1 -12   -0.36    0.43
  -8   1 -12   -0.10    0.29
   8   2 -12    3.52    0.67
  -8  -2 -12    3.40    0.64
  -8  -3 -12    0.97    0.61
   8  -3 -12   -0.18    0.68
  -8  -4 -12    0.32    0.66
   8   4 -12   -0.62    0.56
   8  -4 -12    0.65    0.80
  -8   0 -13    0.21    0.36
   8   0 -13    0.95    0.58
  -8  -1 -13   -0.73    0.46
   8   1 -13    0.65    0.56
   8  -1 -13    0.33    0.62
  -8   1 -13    0.17    0.28
  -8  -2 -13    1.70    0.58
   8   2 -13    0.20    0.56
   8  -2 -13    1.82    0.73
   8   3 -13    0.09    0.58
  -8  -3 -13   -0.12    0.61
   8  -3 -13    0.37    0.64
  -8   0 -14    1.23    0.39
  -8  -1 -14    0.38    0.49
   8  -1 -14    0.54    0.67
  -8   1 -14    0.58    0.23
  -8  -2 -14   -0.15    0.57
   8  -2 -14    0.38    0.71
   9   0   0    0.28    0.29
  -9   0   0    0.25    0.30
   9   1   0    2.47    0.41
   9  -1   0    1.99    0.34
  -9  -1   0    1.79    0.42
  -9  -2   0   30.33    1.69
   9  -2   0   28.05    1.58
   9   2   0   28.41    1.64
  -9  -3   0    2.27    0.49
   9   3   0    2.22    0.51
   9  -4   0   17.44    1.12
  -9  -4   0   17.81    1.27
   9   4   0   17.70    1.27
  -9  -5   0    1.44    0.60
   9  -5   0    1.66    0.46
   9   5   0    1.48    0.64
   9   6   0    9.46    0.97
   9  -6   0    9.76    0.86
  -9  -6   0   10.08    1.01
   9   7   0    1.67    0.69
   9  -7   0    0.85    0.54
  -9  -7   0    0.02    0.72
   9  -8   0    0.70    0.69
  -9   0  -1    4.82    0.81
   9   0  -1    4.77    0.48
   9   0   1    4.39    0.45
  -9   0   1    4.17    0.52
   9  -1   1   97.39    5.06
  -9  -1  -1   98.54    5.11
   9   1  -1  100.16    5.10
  -9  -1   1   99.01    5.14
   9   1   1   99.88    5.10
   9  -1  -1  101.26    5.08
   9  -2   1   27.39    1.46
   9   2  -1   27.44    1.58
  -9  -2  -1   25.90    1.57
   9  -2  -1   27.56    1.50
  -9  -2   1   26.37    1.58
   9   2   1   24.51    1.55
  -9  -3  -1    1.17    0.38
   9   3  -1    0.82    0.46
   9  -3   1    1.54    0.30
   9   3   1    1.62    0.41
  -9  -3   1    1.88    0.51
  -9  -4  -1    9.23    0.86
   9  -4   1    8.20    0.69
   9   4  -1    7.72    0.79
   9   4   1    8.23    0.83
  -9  -4   1   10.39    0.88
  -9  -5  -1   17.86    1.35
   9   5  -1   16.69    1.24
   9  -5   1   18.54    1.26
   9   5   1   18.89    1.38
  -9  -5   1   17.99    1.33
   9  -5  -1   17.07    1.21
   9   6  -1    4.15    0.82
  -9  -6  -1    3.53    0.76
   9  -6   1    3.23    0.54
   9  -6  -1    3.51    0.60
   9   6   1    3.48    0.78
  -9  -6   1    1.91    0.63
  -9  -7  -1    0.98    0.73
   9  -7   1    0.24    0.49
   9   7  -1    0.12    0.60
   9   7   1    1.52    0.76
   9  -7  -1    1.91    0.60
  -9  -7   1    1.02    0.68
   9  -8   1    5.93    0.83
  -9   0  -2   -0.36    0.31
   9   0  -2   -0.03    0.30
   9   0   2   -0.05    0.28
  -9  -1  -2   68.82    3.62
   9   1  -2   68.96    3.61
   9  -1   2   68.96    3.55
   9   1   2   69.49    3.61
   9  -1  -2   68.82    3.59
  -9  -1   2   69.79    3.65
   9   2  -2    0.46    0.31
   9  -2   2    0.53    0.23
  -9  -2  -2   -0.07    0.37
  -9  -2   2    0.69    0.44
   9   2   2    0.49    0.39
  -9  -3  -2   56.12    3.25
   9  -3   2   58.43    3.13
   9   3  -2   68.49    3.30
   9   3   2   59.35    3.28
  -9  -3   2   63.47    3.30
   9  -4   2    0.04    0.30
   9   4  -2   -0.49    0.44
  -9  -4  -2   -0.17    0.48
  -9  -4   2    1.19    0.46
   9   4   2    0.57    0.42
   9   5  -2    2.27    0.66
   9  -5   2    3.28    0.45
  -9  -5  -2    3.53    0.57
   9   5   2    3.45    0.60
  -9  -5   2    2.44    0.63
   9  -5  -2    3.21    0.59
   9   6  -2   -0.16    0.64
  -9  -6  -2    0.63    0.52
   9  -6   2    1.64    0.44
   9  -6  -2    1.03    0.56
   9   6   2    1.44    0.66
  -9  -6   2    1.47    0.62
   9  -7   2    2.15    0.52
   9   7  -2    2.59    0.73
  -9  -7  -2    2.33    0.82
  -9  -7   2    2.18    0.69
   9   7   2    2.75    0.85
   9  -8   2   -1.40    0.53
   9   0   3   82.52    4.17
   9   0  -3   79.53    4.20
  -9   0  -3   81.27    4.19
  -9  -1  -3    3.46    0.44
   9   1  -3    3.79    0.46
   9  -1   3    3.58    0.37
  -9  -1   3    3.50    0.47
   9   1   3    3.47    0.45
  -9   1  -3    3.34    0.41
   9  -1  -3    3.79    0.46
   9  -2   3    9.86    0.64
   9   2  -3    9.30    0.75
  -9  -2  -3   10.50    0.82
   9   2   3    9.98    0.80
  -9  -2   3   10.21    0.92
  -9  -3  -3   22.89    1.43
   9   3  -3   26.34    1.53
   9  -3   3   23.22    1.29
   9   3   3   23.17    1.49
  -9  -3   3   24.40    1.46
   9   4  -3    6.56    0.76
  -9  -4  -3    5.49    0.70
   9  -4   3    7.82    0.58
   9   4   3    7.07    0.74
  -9  -5  -3    9.37    0.93
   9   5  -3    7.19    0.81
   9  -5   3    7.96    0.66
   9   5   3    7.17    0.88
   9  -5  -3    8.27    0.82
  -9  -5   3    7.42    0.81
   9  -6   3    3.04    0.44
   9   6  -3    2.26    0.70
  -9  -6  -3    3.05    0.76
   9  -6  -3    2.69    0.64
   9   6   3    3.77    0.80
  -9  -6   3    3.33    0.71
   9   7  -3    1.82    0.69
  -9  -7  -3    2.08    0.78
   9  -7   3    2.15    0.45
   9  -7  -3    2.47    0.68
   9   7   3    1.98    0.73
  -9  -7   3    3.65    0.74
  -9   0  -4    0.51    0.30
   9   0  -4    0.56    0.36
   9   0   4    0.28    0.28
  -9  -1  -4   13.14    0.89
   9   1  -4   12.62    0.94
   9  -1   4   12.43    0.80
   9  -1  -4   13.55    0.94
   9   1   4   12.93    0.90
  -9   1  -4   13.15    0.85
  -9  -2  -4   16.70    1.13
   9   2  -4   18.89    1.17
   9   2   4   17.09    1.14
  -9  -2   4   16.07    1.20
   9  -3   4    3.94    0.34
   9   3  -4    4.20    0.56
  -9  -3  -4    4.09    0.60
  -9  -3   4    3.64    0.58
   9   3   4    4.51    0.63
   9  -4   4   22.56    1.24
   9   4  -4   24.35    1.50
   9  -4   4   23.28    1.26
  -9  -4  -4   22.18    1.54
   9   4   4   23.22    1.57
  -9  -4   4   25.11    1.56
   9  -5   4    1.25    0.28
   9   5  -4    0.62    0.56
   9  -5   4    1.18    0.23
  -9  -5  -4    1.81    0.64
   9   5   4    0.89    0.66
  -9  -5   4    1.28    0.62
   9  -5  -4    0.82    0.51
   9  -6   4    6.78    0.55
  -9  -6  -4    6.80    0.95
   9   6  -4    8.02    0.89
   9  -6   4    6.99    0.60
   9  -6  -4    7.35    0.89
   9   6   4    6.80    0.84
  -9  -6   4    7.07    0.87
   9   7  -4    1.53    0.73
  -9  -7  -4    1.50    0.74
   9  -7   4    1.37    0.31
   9  -7   4    1.65    0.37
   9   7   4    0.67    0.79
   9  -7  -4    1.96    0.70
  -9  -7   4    1.58    0.71
   9   0   5   25.00    1.47
  -9   0  -5   26.63    1.49
   9   0  -5   27.64    1.57
  -9  -1  -5    1.99    0.45
   9  -1   5    1.45    0.27
   9   1  -5    1.42    0.35
   9   1   5    1.92    0.40
  -9   1  -5    1.62    0.33
   9  -1  -5    1.25    0.43
   9   2  -5   15.35    1.06
   9  -2   5   14.75    0.83
  -9  -2  -5   15.55    1.04
   9   2   5   13.88    1.05
   9  -3   5   25.79    1.37
  -9  -3  -5   25.95    1.58
   9   3  -5   25.32    1.64
   9  -3   5   27.30    1.37
  -9  -3   5   29.08    1.69
   9   3   5   26.72    1.67
   9   4  -5    1.55    0.56
  -9  -4  -5    1.92    0.59
   9  -4   5    2.11    0.17
  -9  -4   5    2.76    0.59
   9   4   5    1.91    0.63
   9   5  -5    0.48    0.56
   9  -5   5    0.91    0.10
  -9  -5  -5    0.99    0.60
  -9  -5   5    1.34    0.61
   9   5   5    1.24    0.69
   9  -5  -5    1.48    0.56
  -9  -6  -5    2.00    0.76
   9   6  -5    2.41    0.69
   9  -6   5    1.39    0.14
   9  -6   5    1.64    0.16
  -9  -6   5    1.74    0.68
   9   6   5    2.18    0.80
   9  -6  -5    1.67    0.64
   9   7  -5    3.61    0.80
  -9  -7  -5    2.02    0.84
   9  -7   5    4.65    0.33
   9  -7  -5    4.12    0.86
   9   7   5    3.09    0.92
  -9  -7   5    2.16    0.76
  -9   0  -6    0.28    0.29
   9   0   6   -0.08    0.27
   9   0  -6   -0.25    0.40
   9   1  -6   31.08    1.83
  -9  -1  -6   28.88    2.07
   9  -1  -6   32.88    1.88
  -9   1  -6   33.09    1.76
   9   1   6   34.65    1.83
   9   2  -6    1.71    0.51
   9  -2   6    1.20    0.17
  -9  -2  -6    2.06    0.47
   9   2   6    1.10    0.47
   9   3  -6    3.94    0.58
  -9  -3  -6    3.36    0.57
   9   3   6    3.26    0.57
  -9  -3   6    3.56    0.64
   9   4  -6    0.61    0.55
  -9  -4  -6    1.60    0.59
  -9  -4   6    2.42    0.59
   9   4   6    0.57    0.58
   9  -4  -6    1.76    0.59
  -9  -5  -6    1.89    0.70
   9   5  -6    2.50    0.67
  -9  -5   6    3.41    0.67
   9  -5  -6    2.54    0.68
   9   5   6    1.95    0.74
  -9  -6  -6    2.10    0.76
  -9  -6   6    1.69    0.65
   9   6   6    1.79    0.80
  -9  -7  -6    5.45    0.98
   9   7   6    5.02    0.94
  -9  -7   6    7.43    1.03
   9   0   7   25.26    1.43
   9   0  -7   23.31    1.54
  -9   0  -7   27.03    1.46
  -9  -1  -7    9.65    0.88
   9  -1   7    8.66    0.63
   9   1  -7    8.48    0.90
  -9   1  -7   10.58    0.70
   9   1   7   13.84    0.90
   9   2  -7    4.90    0.66
  -9  -2  -7    4.88    0.60
   9   2   7    5.76    0.63
  -9  -3  -7    5.90    0.67
   9   3  -7    6.21    0.69
   9   3   7    4.42    0.70
  -9  -4  -7    1.00    0.62
   9   4  -7    0.19    0.54
   9   4   7    0.64    0.53
   9  -4  -7    1.37    0.61
   9   5  -7   15.92    1.29
  -9  -5  -7   14.90    1.29
   9   5   7   14.02    1.30
  -9  -5   7   16.52    1.30
   9  -5  -7   15.57    1.35
  -9  -6  -7    0.05    0.60
   9   6  -7   -1.25    0.60
   9   6   7   -0.41    0.71
   9  -6  -7   -1.06    0.61
  -9  -7  -7   -0.39    0.81
   9   0   8   -0.06    0.31
  -9   0  -8    0.03    0.31
   9   0  -8   -0.35    0.40
   9  -1   8    4.64    0.43
  -9  -1  -8    5.08    0.56
   9   1  -8    5.17    0.66
  -9   1  -8    4.48    0.44
   9   1   8    6.40    0.63
  -9  -2  -8    3.78    0.57
   9   2  -8    2.54    0.53
   9   2   8    2.92    0.54
  -9  -3  -8    0.58    0.52
   9   3  -8    1.26    0.55
   9   3   8    0.26    0.55
  -9  -4  -8   19.45    1.45
   9   4  -8   20.69    1.45
   9  -4  -8   20.89    1.54
  -9  -5  -8    0.64    0.54
   9   5  -8   -0.12    0.59
   9  -5  -8    0.04    0.53
   9   5   8    0.35    0.73
  -9  -6  -8    0.51    0.75
   9   6  -8    1.97    0.72
   9  -6  -8    0.44    0.74
   9   6   8   -0.45    0.88
   9   0  -9   58.61    3.15
  -9   0  -9   53.72    3.01
   9   0   9   59.86    3.00
   9   1  -9   -0.11    0.48
  -9  -1  -9    0.18    0.39
  -9   1  -9   -0.37    0.25
   9   1   9   -0.10    0.45
   9   2  -9    1.22    0.55
  -9  -2  -9    2.10    0.51
   9   2   9    2.10    0.54
  -9  -3  -9    3.87    0.67
   9   3  -9    4.15    0.65
   9   3   9    3.72    0.66
   9   4  -9    1.89    0.61
  -9  -4  -9    3.11    1.22
   9  -4  -9    3.03    0.69
   9   4   9    3.36    0.77
   9   5  -9    1.44    0.76
  -9  -5  -9    0.72    0.75
   9  -5  -9    0.44    0.85
   9   5   9    0.08    0.81
   9   0 -10   -0.32    0.47
  -9   0 -10    0.19    0.33
  -9  -1 -10   11.93    0.91
   9   1 -10   12.70    1.04
  -9   1 -10   10.74    0.75
   9  -1 -10   10.08    0.96
   9   2 -10    3.04    0.63
  -9  -2 -10    3.47    0.59
   9   2  10    2.76    0.57
   9   3 -10   -0.10    0.52
  -9  -3 -10    0.44    0.57
   9   3  10   -0.63    0.57
   9   4 -10    1.36    0.60
  -9  -4 -10    0.96    0.62
   9   4  10   -0.71    0.65
   9  -4 -10    1.32    0.65
  -9  -5 -10    0.89    0.73
   9   5 -10   -0.14    0.62
   9  -5 -10    1.06    0.62
   9   5  10    0.08    0.82
  -9   0 -11    5.92    0.58
   9   0 -11    7.81    0.78
  -9  -1 -11    3.47    0.55
   9   1 -11    3.70    0.68
  -9   1 -11    2.46    0.35
   9  -1 -11    2.96    0.70
  -9  -2 -11    2.58    0.59
   9   2 -11    2.04    0.61
   9   3 -11   14.58    1.23
  -9  -3 -11   16.28    1.29
   9  -3 -11   14.30    1.32
   9   3  11   18.95    1.44
   9   4 -11    0.19    0.60
  -9  -4 -11    0.55    0.63
   9  -4 -11    0.55    0.72
   9   4  11    0.88    0.69
  -9  -5 -11    2.92    0.82
   9  -5 -11    0.68    0.82
   9   5  11   -0.24    0.86
  -9   0 -12   -0.24    0.35
  -9  -1 -12    1.86    0.51
   9  -1 -12    1.56    0.81
   9   2 -12    0.53    0.57
  -9  -2 -12    1.39    0.57
   9   3 -12    0.57    0.58
  -9  -3 -12   -0.14    0.57
   9  -3 -12    0.56    0.67
  -9  -4 -12    3.81    0.77
   9   4 -12    2.98    0.81
   9  -4 -12    3.86    0.90
   9   0 -13    1.47    0.65
  -9   0 -13    1.97    0.43
  -9  -1 -13   -0.15    0.44
   9   1 -13    1.01    0.59
   9  -1 -13    1.74    0.70
  -9   1 -13    0.41    0.25
  -9  -2 -13    2.57    0.61
   9   2 -13    2.13    0.71
   9  -2 -13    2.14    0.76
  -9  -3 -13   -0.53    0.62
   9  -3 -13    0.42    0.65
  -9   0 -14   -0.01    0.36
  -9  -1 -14    2.54    0.54
  -9   1 -14    1.61    0.20
 -10   0   0  162.32    8.10
  10   0   0  156.03    8.05
  10   1   0    0.42    0.36
  10  -1   0    0.53    0.28
 -10  -1   0    0.40    0.32
  10   2   0  168.50    8.42
  10  -2   0  162.18    8.34
 -10  -2   0  165.36    8.43
  10   3   0   -0.05    0.42
 -10  -3   0    0.38    0.45
  10  -3   0    0.52    0.31
 -10  -4   0    7.21    0.73
  10   4   0    7.59    0.80
  10  -5   0    0.24    0.44
 -10  -5   0    0.42    0.49
  10   5   0   -0.26    0.55
  10   6   0    0.17    0.62
  10  -6   0    0.37    0.46
 -10  -6   0    0.05    0.65
 -10  -7   0    0.36    0.71
  10   7   0    0.01    0.78
  10  -7   0   -0.10    0.52
  10   0  -1   -0.04    0.33
 -10   0  -1   -0.10    0.36
 -10   0   1   -0.54    0.33
  10   0   1   -0.21    0.31
 -10  -1  -1   15.72    1.13
  10  -1   1   17.58    1.03
  10   1  -1   17.56    1.06
  10  -1  -1   17.71    1.07
  10   1   1   16.54    1.10
 -10  -1   1   17.08    1.18
  10  -2   1   20.42    1.21
  10   2  -1   19.72    1.32
 -10  -2  -1   21.35    1.35
 -10  -2   1   21.57    1.35
  10   2   1   21.02    1.33
  10  -2  -1   21.50    1.25
 -10  -3  -1   13.39    1.01
  10  -3   1   12.79    0.81
  10   3  -1    9.49    0.86
 -10  -3   1   10.06    0.88
  10   3   1   10.63    0.94
  10   4  -1   17.25    1.32
 -10  -4  -1   18.54    1.23
 -10  -4   1   18.15    1.36
 -10  -5  -1    1.00    0.58
  10  -5   1    0.48    0.41
  10   5  -1    1.03    0.62
  10   5   1    1.61    0.68
  10  -5  -1    1.46    0.48
 -10  -5   1    1.08    0.55
  10  -6   1    3.12    0.55
 -10  -6  -1    4.67    0.70
  10   6  -1    2.44    0.70
 -10  -6   1    3.31    0.76
  10  -6  -1    3.10    0.61
  10   6   1    2.81    0.80
  10   7  -1    7.31    1.01
  10  -7   1    6.64    0.72
 -10  -7  -1    5.98    0.92
 -10  -7   1    5.77    0.92
  10   7   1    7.98    1.05
  10   0   2    0.92    0.32
 -10   0  -2    1.09    0.43
  10   0  -2    1.04    0.39
  10   1  -2    1.16    0.37
 -10  -1  -2    0.82    0.39
  10  -1   2    0.59    0.28
  10  -1  -2    1.10    0.33
  10   1   2    0.59    0.30
 -10  -1   2    1.13    0.42
 -10  -2  -2   17.20    1.15
  10   2  -2   16.75    1.08
  10  -2   2   17.10    0.99
  10  -2  -2   15.46    1.08
  10   2   2   16.94    1.13
 -10  -2   2   17.07    1.20
  10  -3   2   64.07    2.95
  10   3  -2   54.13    3.05
 -10  -3  -2   54.03    3.07
  10   3   2   53.92    3.09
 -10  -3   2   55.38    3.11
  10  -4   2    0.25    0.32
  10  -4   2    1.48    0.35
  10   4  -2    0.65    0.54
 -10  -4  -2    1.07    0.54
  10   4   2    0.08    0.54
 -10  -4   2    1.96    0.59
  10   5  -2   22.73    1.62
 -10  -5  -2   21.46    1.62
  10   5   2   27.81    1.72
  10  -5  -2   24.39    1.54
 -10  -5   2   23.02    1.54
 -10  -6  -2   -0.37    0.66
  10  -6   2    0.41    0.41
  10   6  -2    0.79    0.66
  10   6   2   -0.07    0.53
 -10  -6   2    0.45    0.66
  10  -6  -2   -0.21    0.55
  10   7  -2    1.31    0.75
 -10  -7  -2    0.91    0.71
  10  -7   2    1.67    0.52
  10  -7  -2    0.62    0.61
  10   7   2    0.70    0.74
 -10  -7   2    1.31    0.72
  10   0   3   -0.07    0.31
  10   0  -3    0.35    0.38
 -10   0  -3    0.24    0.34
  10  -1   3   11.54    0.77
 -10  -1  -3   11.85    0.88
  10   1  -3   11.61    0.87
 -10   1  -3   10.91    0.82
  10  -1  -3   12.17    0.87
  10   1   3   10.79    0.85
 -10  -1   3   10.58    0.96
  10  -2   3    3.05    0.34
 -10  -2  -3    2.73    0.51
  10   2  -3    3.54    0.53
  10  -2  -3    3.65    0.49
  10   2   3    2.63    0.49
 -10  -2   3    3.85    0.59
 -10  -3  -3    1.55    0.42
  10  -3   3    1.56    0.28
  10   3  -3    0.84    0.51
 -10  -3   3    1.79    0.47
  10   3   3    1.36    0.53
 -10  -4  -3   19.48    1.36
  10  -4   3   16.71    1.05
  10   4  -3   18.68    1.31
  10  -4   3   18.56    1.10
  10   4   3   19.47    1.38
 -10  -4   3   20.91    1.38
  10  -5   3    3.62    0.42
  10  -5   3    2.97    0.40
 -10  -5  -3    2.83    0.66
  10   5  -3    2.23    0.68
 -10  -5   3    2.16    0.67
  10   5   3    2.66    0.62
  10  -5  -3    2.64    0.60
  10  -6   3    0.53    0.37
  10   6  -3   -0.34    0.65
 -10  -6  -3    0.38    0.64
  10  -6   3    0.24    0.42
  10   6   3    0.38    0.73
 -10  -6   3   -0.33    0.63
  10  -6  -3   -0.94    0.55
  10  -7   3    6.85    0.62
 -10  -7  -3    6.30    0.96
  10   7  -3    6.65    0.97
 -10  -7   3    6.98    0.95
  10   7   3    5.91    0.96
  10  -7  -3    8.12    0.88
  10   0  -4   87.31    4.55
 -10   0  -4   89.83    4.54
  10   0   4   86.35    4.51
  10   1  -4   -0.06    0.38
  10  -1   4    0.63    0.28
 -10  -1  -4    0.23    0.34
  10   1   4   -0.34    0.35
  10  -1  -4   -0.08    0.38
 -10   1  -4    0.28    0.32
  10   2  -4   51.82    2.46
 -10  -2  -4   40.97    2.39
  10  -2   4   40.31    2.25
 -10  -2   4   42.85    2.45
  10   2   4   42.78    2.39
  10  -3   4    6.09    0.51
  10   3  -4    6.23    0.73
 -10  -3  -4    5.97    0.71
  10   3   4    6.92    0.74
 -10  -3   4    5.35    0.74
  10  -4   4    4.36    0.41
 -10  -4  -4    5.34    0.74
  10   4  -4    4.84    0.72
  10  -4   4    5.29    0.43
  10   4   4    5.68    0.77
 -10  -4   4    5.95    0.76
  10  -5   4    0.35    0.22
  10  -5   4    0.23    0.27
  10   5  -4    0.48    0.61
 -10  -5  -4    0.63    0.50
  10  -5  -4   -0.14    0.48
 -10  -5   4   -0.41    0.59
  10   5   4    0.20    0.64
  10  -6   4    2.95    0.34
 -10  -6  -4    3.44    0.67
  10   6  -4    2.87    0.78
 -10  -6   4    3.49    0.77
  10   6   4    4.83    0.82
  10  -6  -4    3.79    0.73
 -10  -7  -4    2.60    0.84
  10  -7   4    1.55    0.36
  10  -7   4    2.43    0.35
  10   7   4    1.49    0.85
  10  -7  -4    3.43    0.89
 -10  -7   4    3.82    0.95
  10   0   5   -0.17    0.30
 -10   0  -5    0.11    0.34
  10   0  -5   -0.07    0.31
  10  -1   5   18.75    1.14
  10   1  -5   22.60    1.27
 -10  -1  -5   22.61    1.28
  10  -1  -5   20.21    1.31
  10   1   5   19.31    1.25
 -10   1  -5   17.73    1.17
 -10  -2  -5   20.97    1.34
  10  -2   5   20.30    1.15
  10   2  -5   21.83    1.36
  10   2   5   21.15    1.36
  10   3  -5    3.43    0.61
  10  -3   5    3.15    0.28
 -10  -3  -5    3.37    0.55
  10   3   5    2.54    0.62
 -10  -3   5    3.41    0.63
  10  -4   5    5.55    0.42
 -10  -4  -5    4.82    0.72
  10   4  -5    5.09    0.74
  10  -4   5    5.74    0.38
  10   4   5    6.03    0.85
 -10  -4   5    6.44    0.77
  10  -5   5    3.33    0.25
  10  -5   5    3.04    0.28
  10   5  -5    3.17    0.67
 -10  -5  -5    2.76    0.66
  10  -5  -5    4.53    0.68
  10   5   5    3.71    0.79
 -10  -5   5    3.06    0.67
 -10  -6  -5    7.12    0.88
  10   6  -5    4.13    0.97
  10   6   5    5.53    0.93
 -10  -6   5    6.39    0.88
 -10  -7  -5    2.27    0.86
  10   7   5    3.02    0.83
  10   0   6   19.52    1.08
 -10   0  -6   14.89    1.05
  10   0  -6   14.60    1.07
  10  -1   6    6.89    0.55
  10   1  -6    8.83    0.75
 -10  -1  -6    8.27    0.69
  10  -1  -6    6.79    0.72
  10   1   6    7.40    0.67
 -10   1  -6    6.94    0.63
  10   2  -6    1.48    0.46
 -10  -2  -6    0.68    0.45
  10  -2   6    1.01    0.20
  10   2   6    1.46    0.50
 -10  -3  -6    8.84    0.80
  10   3  -6    8.54    0.85
  10   3   6    7.84    0.80
 -10  -3   6    9.01    0.86
 -10  -4  -6    3.01    0.64
  10   4  -6    3.31    0.68
 -10  -4   6    3.42    0.71
  10   4   6    3.98    0.87
  10   5  -6   17.23    1.34
 -10  -5  -6   14.95    1.25
 -10  -5   6   17.69    1.37
  10   5   6   15.77    1.44
  10  -5  -6   17.62    1.38
 -10  -6  -6    1.07    0.74
  10   6  -6    1.24    0.67
  10   6   6    0.04    0.78
 -10  -6   6    1.63    0.72
  10  -6  -6    0.54    0.69
 -10  -7  -6   -0.83    0.73
 -10   0  -7   -0.03    0.33
  10   0  -7    0.34    0.49
  10   0   7   -0.15    0.36
 -10  -1  -7   13.29    0.99
  10   1  -7   13.41    1.06
  10   1   7   16.68    1.07
  10  -1  -7   15.20    1.12
 -10   1  -7   13.00    0.91
  10  -2   7    5.10    0.33
 -10  -2  -7    5.28    0.64
  10   2  -7    5.17    0.66
  10   2   7    4.91    0.65
  10   3  -7   15.03    1.18
 -10  -3  -7   15.16    1.14
  10   3   7   14.43    1.19
  10   4  -7    1.57    0.60
 -10  -4  -7    1.99    0.66
  10   4   7    1.22    0.68
  10   5  -7    3.42    0.75
 -10  -5  -7    5.14    0.84
  10   5   7    3.78    0.85
  10  -5  -7    4.23    0.79
 -10  -5   7    4.09    0.77
 -10  -6  -7   -0.08    0.76
  10   6  -7    1.15    0.68
  10   6   7    0.55    0.83
  10  -6  -7    0.32    0.72
 -10  -6   7    0.27    0.66
  10   0   8    8.85    0.70
 -10   0  -8    5.11    0.56
  10   0  -8    5.83    0.69
  10   1  -8   10.19    0.91
 -10  -1  -8    8.54    0.80
  10  -1   8    8.86    0.63
  10   1   8   10.03    0.82
 -10   1  -8    9.42    0.71
  10  -1  -8   10.69    0.92
 -10  -2  -8   15.63    1.12
  10   2  -8   15.62    1.20
  10   2   8   14.84    1.14
 -10  -3  -8   -0.33    0.54
  10   3  -8    0.49    0.53
  10   3   8   -0.13    0.55
  10   4  -8    0.09    0.56
  10   4   8    1.09    0.68
  10  -4  -8    0.24    0.66
 -10  -5  -8    0.66    0.71
  10  -5  -8    0.15    0.69
  10   5   8    1.09    0.85
 -10  -6  -8    2.52    1.00
  10   6   8    2.43    1.43
  10   0   9   -0.74    0.35
  10   0  -9   -0.21    0.40
 -10   0  -9    0.44    0.36
  10   1  -9    1.70    0.59
  10   1   9    2.28    0.47
 -10   1  -9    1.95    0.35
  10  -1  -9    2.16    0.60
  10   2  -9    7.52    0.79
 -10  -2  -9    8.25    0.79
  10   2   9    7.36    0.78
 -10  -3  -9    1.01    0.55
  10   3  -9    0.86    0.53
  10   3   9    1.05    0.59
  10   4  -9    3.19    0.68
 -10  -4  -9    3.54    0.75
  10  -4  -9    2.82    0.79
  10   4   9    3.13    0.79
  10   5  -9   -1.08    0.60
 -10  -5  -9    0.94    0.73
  10  -5  -9    0.34    0.75
  10   5   9   -1.07    0.79
 -10  -6  -9    3.26    0.87
  10   6   9    2.00    1.03
 -10   0 -10    0.59    0.37
  10   0 -10    0.86    0.50
  10   1 -10    0.47    0.52
 -10   1 -10    0.32    0.29
  10  -1 -10   -0.10    0.57
  10   1  10   -0.11    0.60
 -10  -2 -10   -0.07    0.49
  10   2 -10   -0.23    0.51
  10   2  10    0.21    0.51
 -10  -3 -10    8.69    0.92
  10   3 -10    9.11    0.93
  10   3  10    9.16    0.95
  10   4 -10   -0.20    0.56
 -10  -4 -10   -0.97    0.57
  10  -4 -10    0.53    0.65
  10   4  10    0.21    0.69
 -10  -5 -10    2.02    0.69
  10   5 -10    0.94    0.82
  10   5  10    1.58    0.91
  10  -5 -10    1.89    0.79
  10   0 -11    0.41    0.56
 -10   0 -11    0.30    0.37
  10   1 -11    8.58    0.90
 -10  -1 -11    7.12    0.94
 -10   1 -11    8.14    0.63
  10  -1 -11    9.53    0.97
  10   2 -11    3.87    0.70
 -10  -2 -11    2.89    0.60
  10   2  11    3.31    0.69
 -10  -3 -11    4.14    0.75
  10   3 -11    4.12    0.72
  10   3  11    5.32    0.85
  10   4 -11   -0.06    0.62
 -10  -4 -11   -0.67    0.61
  10   4  11   -0.41    0.76
  10  -4 -11    0.86    0.60
 -10   0 -12    2.92    0.47
  10   0 -12    3.83    0.75
  10   1 -12   -0.39    0.58
 -10  -1 -12   -0.29    0.46
  10  -1 -12   -0.01    0.59
 -10   1 -12    0.26    0.31
 -10  -2 -12    5.50    0.71
  10   2 -12    4.16    0.74
  10   3 -12    1.49    0.64
 -10  -3 -12    0.79    0.63
  10  -3 -12    0.57    0.67
 -10  -4 -12   -0.51    0.64
  10  -4 -12   -0.44    0.67
 -10   0 -13    0.46    0.37
  10   0 -13   -0.07    0.84
 -10  -1 -13   -0.08    0.45
  10   1 -13    0.30    0.72
 -10   1 -13    0.18    0.23
 -10  -2 -13    1.67    0.62
 -10   0 -14    1.56    0.41
 -11   0   0   -0.42    0.41
  11   0   0    0.15    0.30
  11   1   0    2.52    0.40
 -11  -1   0    2.18    0.44
  11  -1   0    2.40    0.39
 -11  -2   0   11.68    0.91
  11  -2   0   12.36    0.85
  11   2   0   11.81    0.98
  11   3   0    0.61    0.49
  11  -3   0    0.32    0.35
 -11  -3   0    0.48    0.51
  11   4   0   20.94    1.48
 -11  -4   0   20.03    1.46
 -11  -5   0    1.06    0.67
  11  -5   0    1.53    0.50
  11   5   0    1.64    0.67
  11   6   0    6.40    0.97
  11  -6   0    6.91    0.75
 -11  -6   0    6.76    0.88
  11   7   0   -0.80    0.78
 -11  -7   0   -0.35    0.65
  11   0   1    7.48    0.66
 -11   0  -1    7.12    0.72
  11   0  -1    9.29    0.75
  11  -1   1    2.19    0.37
  11   1  -1    1.93    0.46
 -11  -1  -1    1.78    0.46
  11   1   1    2.10    0.46
  11  -1  -1    2.45    0.43
 -11  -1   1    2.03    0.53
  11   2  -1    1.86    0.50
 -11  -2  -1    3.25    0.49
  11  -2   1    2.16    0.37
  11   2   1    1.77    0.43
 -11  -2   1    2.05    0.56
  11  -2  -1    3.16    0.44
 -11  -3  -1   24.32    1.66
  11   3  -1   25.74    1.66
  11  -3   1   32.88    1.60
  11  -3  -1   25.62    1.54
 -11  -3   1   26.04    1.69
  11   3   1   23.69    1.59
  11   4  -1    0.99    0.54
  11  -4   1    2.18    0.49
  11   4   1    0.85    0.61
 -11  -4   1    1.28    0.61
 -11  -5  -1    3.78    0.74
  11   5  -1    3.99    0.77
  11  -5   1    3.34    0.54
  11  -5  -1    3.24    0.58
 -11  -5   1    4.20    0.73
  11   5   1    4.43    0.76
 -11  -6  -1    4.76    0.84
  11  -6   1    5.00    0.63
  11   6  -1    3.79    0.82
  11   6   1    3.90    0.78
 -11  -6   1    2.95    0.80
  11  -6  -1    4.55    0.69
  11   7  -1    2.23    0.98
  11  -7   1    3.75    0.62
 -11  -7  -1    3.56    0.86
  11   7   1    3.39    0.88
 -11  -7   1    3.81    0.98
  11  -7  -1    3.60    0.70
  11   0   2    0.28    0.35
  11   0  -2   -0.13    0.37
 -11   0  -2   -0.22    0.38
  11   1  -2   70.41    3.73
 -11  -1  -2   71.84    3.75
  11  -1   2   68.61    3.66
  11  -1  -2   70.87    3.71
 -11  -1   2   69.46    3.79
  11   1   2   73.80    3.73
  11  -2   2    0.34    0.31
 -11  -2  -2    1.37    0.40
  11   2  -2   -0.03    0.45
  11  -2  -2    0.11    0.38
 -11  -2   2    1.01    0.54
  11   2   2    0.52    0.46
 -11  -3  -2   22.68    1.55
  11  -3   2   27.60    1.39
  11   3  -2   22.92    1.48
  11   3   2   22.27    1.55
 -11  -3   2   23.13    1.59
 -11  -4  -2    2.37    0.62
  11  -4   2    3.46    0.43
  11   4  -2    2.93    0.65
  11   4   2    3.60    0.70
 -11  -4   2    2.46    0.68
  11  -5   2    0.57    0.41
  11   5  -2    0.74    0.64
  11  -5   2    1.32    0.40
 -11  -5  -2    0.20    0.56
 -11  -5   2   -0.62    0.54
  11  -5  -2    1.51    0.54
  11   5   2   -0.04    0.68
  11   6  -2   -0.03    0.59
 -11  -6  -2   -0.12    0.60
  11  -6   2    0.27    0.44
  11  -6  -2    0.05    0.56
  11   6   2   -0.28    0.73
 -11  -6   2   -0.23    0.69
 -11  -7  -2    3.82    0.84
  11  -7   2    2.53    0.54
  11  -7  -2    4.25    0.82
  11   7   2    3.68    0.87
 -11  -7   2    2.97    0.97
  11   0  -3    7.52    0.70
 -11   0  -3    6.11    0.66
  11   0   3    8.33    0.67
 -11  -1  -3    2.93    0.48
  11   1  -3    2.61    0.52
  11  -1   3    3.43    0.40
  11   1   3    2.38    0.45
 -11  -1   3    2.96    0.56
  11  -1  -3    2.32    0.44
 -11   1  -3    1.39    0.42
  11   2  -3   47.08    2.69
  11  -2   3   54.07    2.57
 -11  -2  -3   45.91    2.67
  11  -2  -3   48.05    2.64
  11   2   3   48.40    2.69
 -11  -2   3   48.15    2.71
 -11  -3  -3   17.45    1.22
  11   3  -3   17.89    1.25
  11  -3   3   16.60    1.00
  11   3   3   15.65    1.25
 -11  -3   3   16.20    1.17
  11  -4   3    1.58    0.30
  11  -4   3    1.85    0.35
  11   4  -3    1.50    0.58
 -11  -4  -3    1.23    0.63
  11   4   3    1.30    0.65
 -11  -4   3    1.59    0.63
 -11  -5  -3    9.92    0.97
  11  -5   3    7.51    0.64
  11   5  -3    8.61    0.87
  11  -5  -3    7.48    0.85
  11   5   3   10.27    1.03
 -11  -5   3    8.63    0.95
 -11  -6  -3    0.45    0.74
  11  -6   3    0.66    0.39
  11   6   3    0.62    0.68
  11  -6  -3    0.22    0.58
 -11  -6   3    1.22    0.71
 -11  -7  -3    1.20    0.67
  11  -7   3    0.93    0.42
  11  -7  -3    0.88    0.77
  11   7   3    1.11    0.88
  11   0  -4   -0.18    0.40
  11   0   4    0.46    0.33
 -11   0  -4   -0.46    0.37
  11  -1   4   17.39    0.96
  11   1  -4   12.99    0.97
 -11  -1  -4   15.94    1.07
  11   1   4   13.07    1.00
 -11   1  -4   13.04    0.98
  11  -1  -4   13.05    1.01
  11  -2   4    8.48    0.64
 -11  -2  -4    7.60    0.79
  11   2  -4    9.17    0.77
 -11  -2   4    9.43    0.91
  11  -2  -4    9.42    0.78
  11   2   4    8.35    0.80
  11   3  -4    0.71    0.47
 -11  -3  -4    0.30    0.52
  11   3   4    0.53    0.44
 -11  -3   4    0.27    0.58
  11  -4   4   30.62    1.64
  11   4  -4   31.81    1.93
 -11  -4  -4   28.52    1.95
  11  -4   4   29.90    1.62
 -11  -4   4   30.61    1.91
  11   4   4   31.57    1.96
  11  -5   4    7.21    0.58
  11   5  -4    8.17    0.90
  11  -5   4    8.50    0.62
 -11  -5  -4    7.94    0.97
  11   5   4    8.46    0.90
 -11  -5   4    7.00    0.94
  11  -5  -4    8.09    0.86
  11  -6   4    1.75    0.30
  11  -6   4    1.58    0.35
 -11  -6  -4    2.00    0.80
  11   6  -4    1.66    0.68
  11   6   4    2.76    0.84
 -11  -7  -4    0.35    0.69
  11  -7   4   -0.36    0.32
 -11   0  -5  102.46    5.31
  11   0  -5  103.58    5.34
  11  -1   5  105.20    5.59
  11   1  -5  110.14    5.70
 -11  -1  -5  122.75    5.70
 -11   1  -5  111.65    5.64
  11   1   5  105.20    5.66
  11  -1  -5  106.65    5.68
  11   2  -5    4.76    0.68
 -11  -2  -5    4.82    0.60
  11   2   5    3.75    0.63
  11  -2  -5    5.58    0.68
 -11  -3  -5    6.66    0.73
  11   3  -5    6.87    0.78
  11  -3   5    6.47    0.50
 -11  -3   5    6.17    0.80
  11   3   5    8.02    0.83
  11  -4   5    6.67    0.49
  11  -4   5    8.25    0.51
  11   4  -5    8.48    0.88
 -11  -4  -5    8.47    0.91
 -11  -4   5    7.90    0.93
  11   4   5    8.29    0.91
 -11  -5  -5   26.04    1.78
  11   5  -5   26.83    1.73
  11  -5   5   24.77    1.37
  11  -5   5   24.64    1.30
  11   5   5   24.96    1.76
  11  -5  -5   24.97    1.71
 -11  -5   5   26.25    1.73
  11   6  -5    7.13    0.91
 -11  -6  -5    5.65    0.98
  11  -6  -5    8.54    0.95
  11   6   5    6.55    0.93
 -11  -6   5    7.68    0.93
  11   0  -6    0.62    0.91
 -11   0  -6    0.10    0.38
  11   0   6   -0.74    0.38
  11  -1   6   19.32    1.16
  11   1  -6   19.19    1.33
 -11  -1  -6   20.86    1.29
 -11   1  -6   20.99    1.23
  11  -1  -6   21.67    1.50
  11   1   6   18.30    1.27
  11   2  -6   -0.13    0.49
 -11  -2  -6    0.47    0.43
  11  -2   6    0.17    0.22
  11   2   6   -0.07    0.48
 -11  -3  -6    8.58    0.81
  11   3  -6    8.97    0.88
  11   3   6    8.15    0.86
  11   4  -6    4.16    0.74
  11   4   6    5.24    0.75
 -11  -4   6    5.11    0.76
 -11  -5  -6    5.54    0.88
  11   5  -6    5.36    0.79
  11  -5  -6    5.50    0.84
  11   5   6    5.78    0.88
 -11  -5   6    5.20    0.86
  11   6  -6   -0.04    0.70
 -11  -6  -6   -0.11    0.69
  11  -6  -6   -0.35    0.67
 -11  -6   6    1.24    0.72
  11   6   6   -1.23    0.85
  11   0  -7    2.61    0.59
  11   0   7    2.62    0.49
 -11   0  -7    1.90    0.45
  11   1  -7    2.78    0.54
 -11  -1  -7    3.64    0.52
 -11   1  -7    2.35    0.42
  11  -1  -7    3.45    0.59
  11   1   7    3.77    0.59
 -11  -2  -7   17.65    1.18
  11  -2   7   15.67    0.90
  11   2  -7   17.11    1.23
  11   2   7   16.58    1.20
  11   3  -7   29.40    1.80
 -11  -3  -7   25.94    1.74
  11   3   7   29.74    1.81
  11   4  -7    0.70    0.61
 -11  -4  -7    0.17    0.59
  11   4   7    0.18    0.62
  11   5  -7    1.28    0.78
 -11  -5  -7    2.29    0.67
 -11  -5   7    1.60    0.69
  11  -5  -7    2.76    0.67
  11   5   7    1.73    0.78
 -11  -6  -7    0.58    0.96
 -11  -6   7   -0.74    0.81
  11   0   8   -0.38    0.38
  11   0  -8    0.70    0.56
 -11   0  -8   -0.03    0.39
  11   1  -8    5.73    0.73
 -11  -1  -8    4.73    0.61
  11  -1   8    4.97    0.44
 -11   1  -8    5.27    0.51
  11   1   8    4.06    0.57
  11  -1  -8    6.56    0.78
  11   2  -8    9.72    0.86
 -11  -2  -8    7.47    0.76
  11   2   8    6.33    0.76
  11   3  -8    0.37    0.52
 -11  -3  -8    0.56    0.58
  11   3   8    0.81    0.61
  11   4  -8    5.64    0.80
 -11  -4  -8    5.66    0.84
  11   4   8    5.65    0.90
 -11  -5  -8    0.05    0.72
  11   5  -8    0.81    0.68
  11   5   8    1.05    0.89
  11  -5  -8    0.93    0.74
 -11  -6  -8    2.59    0.91
  11   6   8    3.85    0.95
  11   0   9   14.25    0.96
 -11   0  -9   12.29    0.95
  11   0  -9   11.58    1.05
 -11  -1  -9    0.27    0.45
  11   1  -9   -0.16    0.51
  11  -1   9    0.52    0.25
  11  -1  -9    1.82    0.63
 -11   1  -9   -0.11    0.31
  11   1   9    0.74    0.44
 -11  -2  -9   13.18    1.08
  11   2  -9   13.14    1.16
  11   2   9   13.37    1.10
  11   3  -9    1.67    0.65
 -11  -3  -9    3.36    0.66
  11   3   9    2.63    0.66
  11   4  -9   -0.48    0.60
 -11  -4  -9    0.63    0.62
  11   4   9    0.54    0.74
  11  -4  -9   -0.18    0.72
  11   5  -9   -0.23    0.69
 -11  -5  -9    1.07    0.66
  11   5   9   -0.05    0.85
  11  -5  -9    0.36    0.63
  11   0  10   -0.10    0.36
 -11   0 -10   -0.29    0.37
  11   0 -10    0.43    0.55
  11   1 -10    6.94    0.81
 -11  -1 -10    7.51    0.81
 -11   1 -10    6.15    0.57
  11   1  10    9.65    0.78
  11  -1 -10    6.81    0.88
 -11  -2 -10    1.56    0.56
  11   2 -10    1.93    0.66
  11   2  10    1.95    0.58
  11   3 -10    1.50    0.72
 -11  -3 -10    0.64    0.62
  11   3  10    1.75    0.77
  11   4 -10    0.72    0.63
 -11  -4 -10    1.62    0.67
  11   4  10    1.07    0.71
  11  -4 -10    1.58    0.95
 -11  -5 -10   -0.06    0.74
  11   5  10   -0.31    0.91
 -11   0 -11    0.94    0.40
  11   0 -11    0.02    1.03
 -11   1 -11    1.31    0.33
  11   2 -11   -0.74    0.58
 -11  -2 -11    0.30    0.54
  11   2  11   -0.66    0.62
  11  -2 -11    0.20    0.64
 -11  -3 -11    3.37    0.73
  11   3 -11    3.00    0.68
  11   3  11    5.05    0.85
 -11  -4 -11   -1.03    0.65
  11   4  11    0.59    0.83
  11  -4 -11    1.39    0.78
  11   0 -12    0.29    0.66
 -11   0 -12    0.03    0.39
  11   1 -12    0.90    0.67
 -11  -1 -12    0.02    0.55
  11  -1 -12    0.77    0.70
 -11   1 -12    0.88    0.31
 -11  -2 -12    1.54    0.60
  11   2 -12    2.22    0.71
  11  -2 -12    2.27    0.85
 -11  -3 -12   -0.10    0.63
  11  -3 -12   -0.63    0.76
 -11  -1 -13    0.09    0.50
 -11   1 -13    0.45    0.20
 -11  -2 -13    0.68    0.60
 -12   0   0  177.52    9.15
  12   0   0  181.99    9.11
 -12  -1   0    0.01    0.45
  12  -1   0    0.57    0.37
  12   1   0   -0.11    0.40
  12   2   0   76.16    3.81
  12  -2   0   65.37    3.69
 -12  -2   0   72.74    3.83
 -12  -3   0   -0.11    0.56
  12  -3   0    0.23    0.35
  12   3   0    0.09    0.54
  12   4   0   14.33    1.18
  12  -4   0   11.78    0.91
 -12  -4   0   10.95    1.06
  12  -5   0   -0.15    0.46
  12   5   0   -0.35    0.64
 -12  -5   0    0.07    0.71
  12  -6   0    1.29    0.56
 -12  -6   0    0.56    0.67
  12   6   0    0.03    0.66
  12  -7   0   -0.18    0.56
  12   0   1   -0.30    0.36
  12   0  -1    0.41    0.41
 -12   0  -1   -0.23    0.41
  12   1  -1    4.94    0.55
  12  -1   1    5.27    0.53
 -12  -1  -1    4.67    0.64
  12  -1  -1    4.94    0.51
 -12  -1   1    4.22    0.66
  12   1   1    5.07    0.59
 -12  -2  -1   11.21    0.98
  12   2  -1   11.49    1.00
  12  -2   1   11.53    0.84
  12   2   1   11.89    0.98
  12  -2  -1   11.95    0.86
 -12  -2   1   12.31    1.09
  12  -3   1    1.30    0.42
  12   3  -1    1.43    1.02
 -12  -3  -1    0.60    0.53
  12   3   1    0.27    0.55
  12  -3  -1    0.69    0.41
 -12  -3   1    0.60    0.59
  12  -4   1   14.86    1.02
 -12  -4  -1   17.37    1.21
  12   4  -1   15.06    1.30
  12  -4  -1   16.25    1.10
  12   4   1   14.97    1.17
 -12  -4   1   15.21    1.31
  12  -5   1    3.83    0.50
  12  -5   1    3.27    0.56
 -12  -5  -1    3.76    0.69
  12   5  -1    3.93    0.78
  12   5   1    3.37    0.80
  12  -5  -1    4.05    0.63
 -12  -5   1    4.54    0.82
  12  -6   1    3.05    0.57
 -12  -6  -1    2.42    0.79
  12  -6   1    3.84    0.59
  12  -6  -1    2.17    0.63
 -12  -6   1    3.03    0.78
  12   6   1    3.36    0.86
  12  -7   1    5.10    1.11
  12  -7  -1    6.20    0.88
 -12   0  -2    9.48    0.84
  12   0  -2    9.25    0.84
  12   0   2    9.74    0.79
  12  -1   2   12.96    0.91
  12   1  -2   12.53    0.94
 -12  -1  -2   14.47    1.07
  12   1   2   14.29    1.02
  12  -1  -2   13.11    0.95
 -12  -1   2   14.15    1.13
  12   2  -2    1.69    0.54
 -12  -2  -2    2.99    0.59
  12  -2  -2    2.38    0.46
 -12  -2   2    2.25    0.64
  12   2   2    3.17    0.58
  12   3  -2   26.03    1.66
 -12  -3  -2   24.39    1.65
  12   3   2   26.04    1.69
  12  -3  -2   28.21    1.58
 -12  -4  -2    1.43    0.70
  12  -4   2    2.00    0.41
  12   4  -2    0.86    0.50
  12   4   2    2.07    0.56
 -12  -4   2    1.66    0.69
 -12  -5  -2   12.51    1.18
  12  -5   2   12.94    0.99
  12   5  -2   12.63    1.15
  12  -5   2   15.58    0.99
  12  -5  -2   12.66    1.12
 -12  -5   2   13.65    1.20
  12   5   2   13.39    1.18
  12  -6   2    0.20    0.38
  12   6  -2   -0.07    0.74
 -12  -6  -2    1.15    0.76
  12  -6   2    0.20    0.43
  12  -6  -2    0.62    0.58
  12   6   2   -0.21    0.72
  12  -7   2    1.95    0.56
  12   0   3   -0.23    0.33
  12   0  -3   -0.01    0.40
 -12   0  -3    0.37    0.48
 -12  -1  -3    6.94    0.73
  12   1  -3    7.10    0.72
  12  -1  -3    5.44    0.66
  12   1   3    6.78    0.68
  12   2  -3    4.86    0.65
  12  -2   3    6.74    0.55
 -12  -2  -3    5.68    0.66
  12  -2  -3    5.62    0.63
  12   2   3    5.15    0.64
 -12  -2   3    5.64    0.76
  12  -3   3    1.11    0.34
 -12  -3  -3   -0.51    0.52
  12   3  -3    0.68    0.54
  12   3   3   -0.09    0.42
 -12  -3   3    1.03    0.55
  12  -3  -3    0.34    0.47
  12   4  -3    8.32    0.94
 -12  -4  -3    8.58    0.88
  12  -4   3   10.68    0.71
 -12  -4   3    7.37    0.94
  12   4   3    7.66    0.90
 -12  -5  -3    4.12    0.81
  12  -5   3    4.18    0.48
  12   5  -3    3.75    0.78
  12  -5   3    3.72    0.43
  12   5   3    3.42    0.81
 -12  -5   3    3.56    0.78
  12  -5  -3    2.25    0.66
  12   6  -3    1.57    0.78
  12  -6   3    1.53    0.43
 -12  -6  -3    0.60    0.64
  12   6   3    1.34    0.80
 -12  -6   3    2.12    0.79
  12  -7   3    5.67    0.64
  12   0   4   65.06    3.46
  12   0  -4   66.93    3.52
 -12   0  -4   65.59    3.51
  12   1  -4   -0.40    0.42
 -12  -1  -4    0.16    0.43
  12  -1   4    0.60    0.38
 -12   1  -4   -0.09    0.40
  12   1   4    0.32    0.40
  12  -1  -4    0.74    0.47
  12   2  -4   30.72    1.91
 -12  -2  -4   31.70    1.91
  12   2   4   32.59    1.90
  12  -2  -4   33.30    1.89
 -12  -2   4   30.60    1.97
  12  -3   4    1.02    0.29
 -12  -3  -4    1.39    0.53
  12   3  -4    1.15    0.45
 -12  -3   4    1.11    0.56
  12   3   4    1.43    0.60
 -12  -4  -4    2.72    0.66
  12  -4   4    1.98    0.31
  12   4  -4    2.03    0.68
  12  -4   4    2.06    0.34
  12   4   4    1.51    0.56
 -12  -4   4    1.75    0.62
  12   5  -4    0.78    0.67
  12  -5   4    0.83    0.38
  12  -5   4    0.95    0.28
 -12  -5  -4    1.92    0.68
  12   5   4    0.02    0.73
  12  -5  -4    0.39    0.60
 -12  -5   4    0.46    0.72
  12  -6   4    0.89    0.33
 -12  -6  -4    0.60    0.60
  12  -6   4    0.88    0.30
  12   6  -4    0.16    0.72
  12  -6  -4    1.26    0.64
  12   6   4    2.41    0.83
 -12  -6   4    1.42    0.77
  12  -7   4   -0.25    0.11
  12  -7   4    0.25    0.39
  12   0   5   -0.18    0.41
 -12   0  -5    0.66    0.41
  12   0  -5   -0.31    0.47
  12   1  -5    5.68    0.72
 -12  -1  -5    5.76    0.68
  12  -1   5    5.33    0.55
  12  -1  -5    5.96    0.71
 -12   1  -5    5.38    0.60
  12   1   5    5.57    0.64
 -12  -2  -5    7.65    0.73
  12   2  -5    6.59    0.76
  12  -2   5    7.06    0.60
  12   2   5    6.77    0.77
  12  -2  -5    8.00    0.73
  12  -3   5    1.70    0.29
 -12  -3  -5    3.07    0.57
  12   3  -5    1.10    0.55
 -12  -3   5    2.75    0.70
  12   3   5    1.94    0.58
 -12  -4  -5   10.83    1.05
  12  -4   5   11.89    0.71
  12   4  -5   11.01    1.06
  12   4   5   11.49    1.07
 -12  -4   5   11.72    1.11
  12   5  -5   -0.24    0.63
 -12  -5  -5    0.50    0.64
  12  -5   5    0.17    0.30
  12  -5   5    0.08    0.20
  12   5   5   -0.15    0.69
 -12  -5   5    0.65    0.71
  12  -5  -5   -0.92    0.58
  12   6  -5    1.17    0.77
 -12  -6  -5    3.22    0.96
  12  -6  -5    3.07    0.76
 -12  -6   5    1.08    0.77
  12   0  -6    3.95    0.65
  12   0   6    5.30    0.58
 -12   0  -6    3.01    0.54
 -12  -1  -6    2.19    0.53
  12  -1   6    2.44    0.41
  12   1  -6    3.26    0.62
  12   1   6    2.23    0.50
 -12   1  -6    1.66    0.45
  12  -1  -6    2.27    0.58
 -12  -2  -6    2.83    0.56
  12  -2   6    1.83    0.31
  12   2  -6    3.05    0.61
  12   2   6    3.06    0.59
  12  -2  -6    2.47    0.64
  12   3  -6   14.10    1.20
 -12  -3  -6   15.01    1.17
  12  -3   6   14.50    0.83
  12   3   6   16.96    1.28
  12   4  -6    0.18    0.59
 -12  -4  -6    0.03    0.60
  12   4   6   -0.35    0.63
 -12  -4   6    0.45    0.69
  12   5  -6    5.01    0.87
 -12  -5  -6    3.98    0.86
 -12  -5   6    6.13    1.00
  12   5   6    6.26    0.89
  12  -5  -6    5.98    0.83
  12   6   6   -0.73    0.73
 -12  -6   6    1.32    0.98
 -12   0  -7    0.41    0.44
  12   0   7    0.11    0.43
  12   0  -7   -0.55    0.44
 -12  -1  -7   17.14    1.18
  12  -1   7   15.98    1.01
  12   1  -7   17.57    1.17
  12   1   7   17.21    1.15
  12  -1  -7   16.33    1.27
 -12   1  -7   14.82    1.08
 -12  -2  -7    1.13    0.51
  12  -2   7    0.80    0.23
  12   2  -7    2.26    0.62
  12   2   7    1.28    0.55
  12  -2  -7    1.77    0.59
 -12  -3  -7    3.72    0.63
  12   3  -7    2.88    0.62
  12   3   7    3.24    0.65
 -12  -4  -7    3.07    0.65
  12   4  -7    3.92    0.76
  12   4   7    3.56    0.79
  12   5  -7   -0.38    0.58
 -12  -5  -7   -0.79    0.69
  12  -5  -7    0.61    0.69
  12   5   7   -0.81    0.71
 -12  -5   7    0.68    0.71
 -12  -6  -7    0.57    0.83
  12   6   7   -0.68    0.80
 -12   0  -8   16.55    1.24
  12   0   8   22.94    1.25
  12   0  -8   16.88    1.38
  12   1  -8    0.26    0.57
 -12  -1  -8    0.45    0.46
  12  -1   8   -0.12    0.41
  12   1   8    0.21    0.44
  12  -1  -8   -0.20    0.44
 -12   1  -8   -0.18    0.35
 -12  -2  -8    4.62    0.66
  12   2  -8    4.52    0.70
  12  -2   8    2.99    0.29
  12   2   8    4.07    0.64
  12  -2  -8    4.44    0.65
  12   3  -8    0.55    0.59
 -12  -3  -8    0.88    0.61
  12   3   8    0.58    0.59
 -12  -4  -8    0.27    0.67
  12   4  -8    0.23    0.74
  12   4   8    0.73    0.71
  12   5  -8   -0.16    0.68
 -12  -5  -8    0.79    0.65
  12  -5  -8   -0.08    0.68
  12   5   8    0.36    0.71
  12   0   9   -0.36    0.43
  12   0  -9   -0.85    0.56
 -12   0  -9   -0.22    0.41
 -12  -1  -9    1.10    0.49
  12  -1   9    0.89    0.29
  12   1  -9    1.19    0.62
  12  -1  -9    0.92    0.56
  12   1   9   -0.17    0.45
 -12   1  -9    0.77    0.37
 -12  -2  -9    3.84    0.67
  12   2  -9    3.37    0.72
  12  -2  -9    3.90    0.67
  12   2   9    4.06    0.65
 -12  -3  -9    0.57    0.58
  12   3  -9    1.11    0.70
  12   3   9   -0.08    0.61
 -12  -4  -9    3.96    0.77
  12   4  -9    5.14    0.80
  12   4   9    2.88    0.78
  12  -4  -9    3.90    0.86
 -12  -5  -9   -0.12    0.74
  12   5   9    0.24    0.78
 -12   0 -10    0.81    0.44
  12   0  10    0.82    0.41
  12   0 -10    0.21    0.61
  12   1 -10    3.39    0.66
 -12  -1 -10    2.88    0.56
  12   1  10    2.84    0.61
  12  -1 -10    2.65    0.63
 -12   1 -10    2.45    0.42
 -12  -2 -10    0.19    0.55
  12   2 -10   -0.32    0.65
  12   2  10    0.08    0.66
  12  -2 -10    0.61    0.65
 -12  -3 -10    3.39    0.73
  12   3 -10    3.00    0.73
  12   3  10    2.92    0.83
 -12  -4 -10    0.21    0.72
  12  -4 -10   -0.99    0.67
  12   4  10    0.78    0.84
 -12   0 -11    0.13    0.44
  12   0 -11    0.09    0.64
 -12  -1 -11    6.72    0.85
  12   1 -11    5.76    0.83
 -12   1 -11    7.11    0.63
  12  -1 -11    9.11    0.96
 -12  -2 -11   -0.51    0.54
  12   2 -11    0.38    0.59
  12   2  11   -0.06    0.66
  12  -2 -11    0.26    0.74
 -12  -3 -11    0.36    0.64
  12   3  11    1.29    0.80
 -12  -4 -11    0.39    0.72
  12   4  11   -0.04    0.87
  12   0 -12    6.28    1.04
 -12   0 -12    5.57    0.61
 -12   1 -12    0.17    0.28
 -12  -2 -12    1.91    0.63
 -12  -3 -12    1.01    0.65
  12   3  12    0.24    0.78
 -12   0 -13   -0.13    0.39
 -12  -1 -13    0.68    0.50
 -13   0   0   -0.68    0.50
  13   0   0   -0.14    0.41
  13  -1   0    1.03    0.42
 -13  -1   0    0.96    0.54
  13   1   0    1.16    0.49
  13   2   0   11.51    1.02
 -13  -2   0   12.72    1.09
  13  -2   0    9.65    0.84
 -13  -3   0    0.99    0.52
  13  -3   0    0.96    0.40
  13   3   0    0.21    0.58
 -13  -4   0   17.69    1.39
  13   4   0   20.02    1.33
  13  -4   0   16.34    1.16
 -13  -5   0    0.66    0.55
  13   5   0    0.37    0.71
  13  -5   0   -0.10    0.43
  13  -5   0    1.53    0.52
  13  -6   0    3.43    0.65
  13   6   0    3.88    0.90
  13  -6   0    5.99    0.72
 -13  -6   0    3.47    0.90
  13  -7   0    0.67    0.65
 -13   0  -1    6.32    0.71
  13   0   1    6.40    0.63
  13   0  -1    7.23    0.71
  13   1  -1    1.76    0.52
 -13  -1  -1    1.90    0.60
  13  -1   1    1.61    0.40
  13  -1  -1    1.68    0.45
 -13  -1   1    1.16    0.48
  13   1   1    1.74    0.42
  13   2  -1    1.31    0.54
  13  -2   1    1.62    0.39
 -13  -2  -1    1.47    0.55
  13   2   1    0.62    0.51
 -13  -2   1    1.60    0.64
  13  -2  -1    0.93    0.43
  13   3  -1    6.04    0.81
  13  -3   1    6.36    0.62
 -13  -3  -1    7.50    0.85
  13  -3  -1    7.46    0.69
 -13  -3   1    7.56    0.86
  13   4  -1    0.11    0.68
  13  -4   1    0.80    0.38
 -13  -4  -1    1.06    0.68
 -13  -4   1    0.89    0.59
  13   4   1   -0.46    0.64
  13  -4  -1   -0.13    0.43
  13  -5   1   17.39    1.16
  13  -5   1   16.21    1.09
  13   5  -1   15.70    1.26
 -13  -5  -1   14.88    1.33
  13  -5  -1   14.28    1.18
 -13  -5   1   14.23    1.30
  13  -5  -1   16.11    1.15
  13   5   1   14.68    1.36
 -13  -6  -1    3.25    0.73
  13   6  -1    3.88    0.92
  13  -6   1    4.98    0.65
  13  -6   1    4.45    0.65
  13   6   1    3.13    0.79
  13  -6  -1    3.76    0.70
 -13  -6   1    3.83    0.74
  13  -7   1   -0.11    0.14
  13  -7   1    0.56    0.62
  13   0   2   -0.38    0.35
 -13   0  -2   -0.22    0.49
  13   0  -2   -0.21    0.44
  13  -1   2   65.51    3.43
  13   1  -2   63.54    3.50
 -13  -1  -2   64.45    3.53
  13  -1  -2   65.58    3.47
 -13  -1   2   65.93    3.54
  13   1   2   66.54    3.49
  13   2  -2    1.24    0.51
 -13  -2  -2    1.11    0.52
  13  -2   2    1.18    0.41
 -13  -2   2    1.45    0.65
  13  -2  -2    1.44    0.46
  13   2   2    0.56    0.47
  13   3  -2    7.05    0.77
 -13  -3  -2    7.67    0.87
 -13  -3   2    6.69    0.90
  13   3   2    7.17    0.86
  13  -3  -2    7.11    0.73
  13   4  -2    0.07    0.56
  13  -4   2    1.05    0.36
 -13  -4  -2    0.38    0.49
  13  -4  -2    0.45    0.48
  13   4   2    0.81    0.67
 -13  -4   2    0.41    0.65
  13  -5   2    0.08    0.40
  13   5  -2    1.10    0.71
 -13  -5  -2   -0.48    0.51
  13  -5   2    0.43    0.44
 -13  -5   2    1.39    0.73
  13  -5  -2   -0.04    0.51
  13   5   2   -0.54    0.70
  13  -6   2    1.28    0.45
  13   6  -2    1.76    0.79
  13  -6   2    1.50    0.47
  13  -6  -2    1.28    0.64
 -13  -6   2    0.29    0.75
  13   6   2    1.29    0.84
  13  -7   2    1.19    0.69
 -13   0  -3   42.89    2.38
  13   0   3   40.24    2.29
  13   0  -3   42.05    2.34
  13  -1   3    5.57    0.59
  13   1  -3    4.85    0.59
 -13  -1  -3    3.91    0.61
  13   1   3    3.89    0.61
  13  -1  -3    4.59    0.58
  13   2  -3    5.27    0.71
  13  -2   3    5.36    0.55
 -13  -2  -3    4.01    0.70
  13   2   3    4.04    0.66
  13  -2  -3    4.22    0.63
 -13  -3  -3    9.03    0.92
  13  -3   3   10.97    0.77
  13   3  -3    9.57    0.94
 -13  -3   3    9.58    1.02
  13  -3  -3    8.75    0.85
  13   3   3    7.28    0.91
  13  -4   3    4.58    0.48
  13   4  -3    4.04    0.76
 -13  -4  -3    3.30    0.74
  13  -4  -3    3.28    0.62
 -13  -4   3    3.96    0.81
  13   4   3    4.31    0.81
 -13  -5  -3    6.11    0.90
  13  -5   3    6.99    0.64
  13   5  -3    7.27    0.97
  13  -5   3    9.23    0.70
 -13  -5   3    7.03    0.97
  13   5   3    7.83    0.96
  13  -5  -3    7.09    0.84
  13   6  -3    0.94    0.72
 -13  -6  -3    0.77    0.95
  13  -6   3    1.24    0.42
 -13  -6   3    2.28    0.82
  13   6   3    1.28    0.81
  13  -6  -3    1.84    0.67
 -13   0  -4   -0.20    0.46
  13   0  -4    0.50    0.51
  13   0   4    0.04    0.39
 -13  -1  -4    1.59    0.56
  13  -1   4    3.22    0.57
  13   1  -4    2.11    0.57
  13   1   4    0.84    0.48
  13  -1  -4    1.85    0.54
  13   2  -4   19.38    1.38
 -13  -2  -4   19.03    1.40
  13  -2   4   24.65    1.27
  13  -2  -4   19.04    1.38
  13   2   4   19.10    1.41
 -13  -2   4   19.47    1.53
  13  -3   4   14.91    0.97
 -13  -3  -4   15.54    1.22
  13   3  -4   14.40    1.22
 -13  -3   4   17.18    1.38
  13  -3  -4   15.91    1.22
  13   3   4   15.97    1.24
  13   4  -4    8.57    0.94
 -13  -4  -4    6.40    0.91
 -13  -4   4    7.67    0.96
  13   4   4    8.18    0.97
  13   5  -4    0.18    0.78
  13  -5   4    0.03    0.32
  13  -5   4    0.36    0.27
 -13  -5  -4    0.34    0.69
  13  -5  -4    0.71    0.60
 -13  -5   4    0.12    0.71
  13   5   4   -0.51    0.63
  13  -6   4    6.18    0.55
 -13  -6  -4    5.95    1.03
 -13  -6   4    8.89    1.12
  13   6   4    7.98    1.06
  13  -6  -4    6.76    0.89
 -13   0  -5    3.84    0.60
  13   0   5    4.21    0.58
  13   0  -5    3.36    0.65
 -13  -1  -5   39.48    2.28
  13   1  -5   40.44    2.33
 -13   1  -5   40.74    2.25
  13   1   5   39.96    2.25
  13  -1  -5   38.91    2.31
  13   2  -5   43.29    2.55
 -13  -2  -5   42.98    2.53
  13  -2   5   49.20    2.39
  13   2   5   40.72    2.50
  13  -2  -5   45.73    2.57
  13  -3   5   53.00    2.89
  13   3  -5   55.98    3.07
 -13  -3  -5   54.12    3.09
  13  -3  -5   58.96    3.09
 -13  -3   5   57.06    3.17
  13   3   5   56.11    3.13
  13  -4   5    4.54    0.40
  13   4  -5    6.22    0.85
 -13  -4  -5    3.73    0.79
  13  -4   5    4.10    0.39
 -13  -4   5    6.25    0.83
  13   4   5    3.60    0.84
 -13  -5  -5   -0.89    0.67
  13  -5   5   -0.16    0.23
  13   5  -5   -0.36    0.65
  13  -5   5   -0.07    0.34
  13   5   5   -0.76    0.73
 -13  -6  -5    1.20    0.84
  13   6   5    0.19    0.71
  13   0   6    0.19    0.39
  13   0  -6    0.06    0.54
 -13   0  -6   -0.66    0.51
 -13  -1  -6   23.87    1.53
  13  -1   6   29.09    1.44
  13   1  -6   23.67    1.59
 -13   1  -6   21.89    1.47
  13  -1  -6   21.18    1.53
  13   1   6   21.12    1.49
  13   2  -6    3.44    0.66
 -13  -2  -6    3.25    0.60
  13  -2  -6    2.68    0.56
  13   2   6    2.91    0.61
 -13  -3  -6    1.81    0.63
  13  -3   6    1.23    0.26
  13   3  -6    1.38    0.57
  13  -3  -6    2.13    0.66
  13   3   6    0.47    0.64
 -13  -4  -6    0.51    0.68
  13   4  -6    0.82    0.66
  13   4   6    0.86    0.73
 -13  -4   6    0.37    0.61
 -13  -5  -6    0.13    0.65
  13   5  -6    0.61    0.71
  13  -5  -6   -0.37    0.67
 -13  -5   6    0.40    0.74
  13   5   6    0.68    0.89
 -13  -6  -6    1.37    0.80
  13   6   6    0.50    0.89
 -13   0  -7   16.62    1.19
  13   0  -7   16.36    1.18
  13   0   7   16.48    1.11
  13  -1   7   13.55    0.91
  13   1  -7   13.17    1.11
 -13  -1  -7   11.65    1.07
  13  -1  -7   17.39    1.27
 -13   1  -7   13.32    1.00
  13   1   7   11.00    1.01
 -13  -2  -7    1.29    0.53
  13   2  -7    1.19    0.50
  13  -2   7    0.84    0.27
  13  -2  -7    2.40    0.67
  13   2   7    0.96    0.55
  13   3  -7    1.45    0.66
 -13  -3  -7    3.13    0.65
  13   3   7    2.16    0.70
  13  -3  -7    3.38    0.73
  13   4  -7    2.37    0.87
 -13  -4  -7    2.50    0.75
  13   4   7    2.41    0.74
 -13  -5  -7    4.79    0.90
  13   5  -7    5.60    0.85
  13  -5  -7    5.82    0.91
 -13  -5   7    6.36    0.94
  13   5   7    7.82    1.13
  13   0  -8    0.52    0.60
 -13   0  -8   -0.13    0.44
  13   0   8   -0.23    0.45
 -13  -1  -8    1.73    0.54
  13   1  -8    1.21    0.63
 -13   1  -8    1.41    0.44
  13   1   8    1.21    0.51
  13  -1  -8    1.67    0.64
 -13  -2  -8    7.31    0.79
  13  -2   8    5.24    0.50
  13   2  -8    6.33    0.85
  13   2   8    6.76    0.78
  13  -2  -8    5.88    0.86
  13   3  -8    4.02    0.74
 -13  -3  -8    3.80    0.72
  13   3   8    4.14    0.75
  13  -3  -8    3.18    0.75
 -13  -4  -8    6.68    0.89
  13   4  -8    5.39    0.83
  13   4   8    7.32    0.92
 -13  -5  -8    0.37    0.76
  13   5   8    0.66    0.92
  13   0  -9   19.11    1.57
 -13   0  -9   20.93    1.41
  13   0   9   25.11    1.41
 -13  -1  -9    0.17    0.51
  13  -1   9    0.63    0.30
  13   1  -9    1.44    0.58
 -13   1  -9    1.24    0.41
  13   1   9    1.64    0.53
  13  -1  -9    1.47    0.64
  13   2  -9    3.25    0.72
 -13  -2  -9    2.95    0.64
  13   2   9    3.99    0.75
  13  -2  -9    3.60    0.80
  13   3  -9    0.54    0.63
 -13  -3  -9    0.30    0.61
  13   3   9    0.66    0.76
  13  -3  -9    0.95    0.69
 -13  -4  -9    2.12    0.76
  13   4  -9    0.87    0.81
  13   4   9    1.93    0.78
 -13  -5  -9    0.84    0.76
  13   5   9    1.95    1.00
 -13   0 -10    0.18    0.43
  13   0  10   -0.15    0.37
  13   1 -10    4.16    0.76
 -13  -1 -10    4.43    0.66
  13   1  10    5.91    0.73
  13  -1 -10    5.46    1.02
 -13   1 -10    5.13    0.54
 -13  -2 -10    1.43    0.61
  13   2 -10    0.48    0.65
  13   2  10    1.64    0.72
  13  -2 -10    1.06    0.74
 -13  -3 -10    1.43    0.67
  13   3 -10    1.06    0.67
  13   3  10    1.62    0.80
  13  -3 -10    1.18    0.80
 -13  -4 -10    1.75    0.75
  13   4  10    1.59    0.95
 -13   0 -11    0.05    0.43
  13   0 -11    1.25    0.73
  13   1 -11    1.09    0.62
 -13  -1 -11    1.17    0.54
  13  -1 -11    0.14    0.72
  13   1  11   -0.40    0.65
 -13   1 -11    0.78    0.35
 -13  -2 -11    0.21    0.56
  13   2  11   -0.83    0.67
  13  -2 -11    0.31    0.74
 -13  -3 -11    2.88    0.74
  13   3  11    3.41    0.88
 -13   0 -12   -0.15    0.43
 -13  -2 -12    1.44    0.62
  14   0   0  109.15    5.64
 -14  -1   0    0.09    0.53
  14   1   0   -0.51    0.39
  14  -1   0   -0.22    0.41
  14   2   0   56.72    3.08
  14  -2   0   53.06    2.98
 -14  -2   0   57.92    3.14
  14   3   0    0.04    0.59
  14  -3   0   -0.25    0.37
 -14  -3   0   -0.11    0.61
  14   4   0    7.36    0.88
 -14  -4   0    4.75    0.86
  14  -4   0    6.39    0.66
  14  -5   0    0.35    0.48
 -14  -5   0    0.64    0.72
  14   5   0    0.10    0.61
  14  -5   0    0.75    0.53
  14   6   0    1.01    0.80
  14  -6   0    0.50    0.60
 -14  -6   0    0.49    0.81
  14   0   1   -0.19    0.43
  14   0  -1   -0.26    0.42
 -14   0  -1    0.38    0.50
  14  -1   1    1.75    0.42
  14   1  -1    1.37    0.43
 -14  -1  -1    2.04    0.65
  14   1   1    1.53    0.52
 -14  -1   1    1.45    0.59
  14  -1  -1    1.68    0.49
  14  -2   1    9.72    0.81
 -14  -2  -1    9.16    0.92
  14  -2  -1    9.89    0.80
 -14  -2   1    8.62    0.99
  14   2   1    9.98    0.89
 -14  -3  -1    3.58    0.77
  14  -3   1    3.30    0.50
  14   3  -1    3.90    0.73
  14   3   1    3.48    0.68
 -14  -3   1    4.19    0.69
  14  -3  -1    4.39    0.56
 -14  -4  -1    8.49    0.94
  14  -4   1    8.12    0.74
  14   4  -1    8.07    0.94
 -14  -4   1    8.23    0.90
  14   4   1    7.73    0.99
  14  -4  -1    8.48    0.78
  14  -5   1   10.81    0.89
 -14  -5  -1    7.37    0.99
  14   5  -1    8.16    1.04
  14  -5   1    8.11    0.80
  14   5   1    8.21    1.05
  14  -5  -1   10.35    0.88
  14  -5  -1    7.78    0.85
 -14  -5   1    7.95    1.01
  14  -6   1    3.16    0.64
  14  -6   1    5.31    0.67
 -14  -6  -1    2.28    0.85
  14   6  -1    3.40    0.79
  14  -6  -1    4.72    0.75
  14  -6  -1    2.80    0.67
  14   6   1    4.86    0.95
 -14  -6   1    2.36    0.77
  14   0  -2   12.31    1.03
 -14   0  -2   13.00    1.11
  14   0   2   11.95    0.96
 -14  -1  -2   20.91    1.45
  14  -1   2   21.29    1.34
  14   1  -2   22.59    1.45
 -14  -1   2   20.69    1.56
  14  -1  -2   21.25    1.40
  14   1   2   22.63    1.42
  14   2  -2    0.52    0.52
 -14  -2  -2    0.62    0.61
  14  -2   2    0.52    0.37
  14   2   2    0.63    0.47
 -14  -2   2    0.04    0.83
  14  -2  -2    1.33    0.49
  14   3  -2   14.21    1.17
  14  -3   2   10.66    0.87
  14  -3  -2   12.65    1.02
  14   3   2   12.39    1.08
 -14  -3   2   12.15    1.14
  14   4  -2    0.63    0.63
 -14  -4  -2    2.80    0.77
  14   4   2    2.13    0.70
  14  -4  -2    2.25    0.54
 -14  -4   2    2.64    0.78
  14  -5   2    8.33    0.81
  14   5  -2   11.38    1.16
 -14  -5  -2    9.47    1.12
  14  -5   2   13.64    0.90
 -14  -5   2    8.63    1.10
  14   5   2   10.32    1.11
  14  -5  -2   12.89    1.10
  14  -5  -2   10.04    0.98
  14   6  -2   -0.13    0.69
  14  -6   2   -0.34    0.16
 -14  -6  -2    0.00    0.59
  14  -6   2   -0.05    0.46
  14  -6  -2   -0.33    0.66
 -14  -6   2    1.53    0.88
  14   6   2   -0.32    0.69
  14   0   3   -0.66    0.39
  14   0  -3   -0.09    0.44
 -14   0  -3   -0.45    0.49
  14  -1   3    5.04    0.58
  14   1  -3    4.36    0.69
 -14  -1  -3    4.61    0.73
  14  -1  -3    4.87    0.63
  14   1   3    4.34    0.64
  14  -2   3   10.36    0.88
  14   2  -3   11.26    0.97
 -14  -2  -3    9.68    0.94
 -14  -2   3    9.05    1.02
  14   2   3    9.25    0.92
  14  -2  -3   10.58    0.91
  14  -3   3    0.23    0.40
 -14  -3  -3    0.38    0.62
  14   3  -3    0.18    0.60
 -14  -3   3   -0.51    0.68
  14  -3  -3   -0.13    0.47
  14   3   3   -0.15    0.61
  14   4  -3   -0.06    0.65
 -14  -4  -3    0.47    0.63
  14  -4   3    1.25    0.40
  14   4   3   -0.07    0.60
  14  -4  -3   -0.09    0.50
 -14  -4   3    1.13    0.74
  14  -5   3    4.53    0.50
  14  -5   3    5.46    0.58
  14   5  -3    5.18    1.06
 -14  -5  -3    5.80    0.90
 -14  -5   3    4.55    1.05
  14  -5  -3    5.73    0.79
  14  -5  -3    5.76    0.80
  14   5   3    5.82    0.94
  14  -6   3    4.32    0.54
 -14  -6  -3    5.32    0.89
  14  -6  -3    6.30    0.94
  14   6   3    4.07    0.97
  14   0  -4   43.90    2.50
  14   0   4   42.50    2.41
 -14   0  -4   45.44    2.52
  14   1  -4    1.10    0.57
  14  -1   4   -0.04    0.37
 -14  -1  -4    0.28    0.53
  14  -1  -4   -0.07    0.46
  14   1   4    0.89    0.50
  14   2  -4   27.11    1.79
  14  -2   4   32.41    1.62
 -14  -2  -4   25.82    1.74
  14  -2  -4   26.67    1.70
  14   2   4   23.48    1.72
 -14  -3  -4   -0.38    0.62
  14   3  -4   -0.03    0.60
  14  -3   4   -0.19    0.36
 -14  -3   4    0.92    0.74
  14  -3  -4   -0.40    0.90
 -14  -4  -4    1.48    0.56
  14   4  -4    0.58    0.69
  14  -4  -4    1.28    0.58
 -14  -4   4    1.97    0.77
  14   4   4    0.38    0.55
 -14  -5  -4    4.12    0.81
  14  -5   4    3.22    0.41
  14  -5   4    3.04    0.43
  14   5  -4    3.50    0.82
  14  -5  -4    3.13    0.72
  14   5   4    4.91    1.01
 -14  -5   4    3.21    0.82
  14  -6   4    0.79    0.35
 -14  -6  -4    1.05    0.74
  14   6   4   -0.35    0.74
  14   0   5   -0.03    0.42
  14   0  -5   -0.27    0.54
 -14   0  -5   -0.19    0.50
  14   1  -5    2.48    0.68
 -14  -1  -5    1.77    0.56
  14  -1   5    1.94    0.46
  14   1   5    1.74    0.54
  14  -1  -5    2.02    0.55
 -14  -2  -5    2.74    0.66
  14   2  -5    2.56    0.67
  14  -2   5    4.07    0.50
  14   2   5    2.81    0.65
  14  -2  -5    2.79    0.60
 -14  -3  -5    9.47    1.00
  14   3  -5   10.40    1.02
 -14  -3   5    9.59    1.08
  14  -3  -5   10.21    0.99
  14   3   5    9.82    1.00
 -14  -4  -5   12.94    1.14
  14   4  -5   14.93    1.31
  14  -4  -5   14.57    1.28
 -14  -4   5   13.01    1.26
  14   4   5   12.65    1.18
  14   5  -5    4.31    0.86
  14  -5   5    3.61    0.41
 -14  -5  -5    3.00    0.81
  14  -5  -5    4.57    0.81
 -14  -5   5    4.08    0.86
  14   5   5    4.90    1.03
 -14  -6  -5    1.35    0.65
  14   6   5    1.00    0.90
  14   0  -6    2.14    0.65
 -14   0  -6    1.22    0.55
  14   0   6    1.14    0.45
 -14  -1  -6    0.71    0.54
  14   1  -6    2.33    0.67
  14  -1   6    1.82    0.46
 -14   1  -6    1.52    0.52
  14  -1  -6    2.13    0.65
  14   1   6    1.92    0.54
  14   2  -6    4.26    0.74
 -14  -2  -6    5.21    0.75
  14  -2  -6    3.99    0.75
  14   2   6    4.41    0.72
 -14  -3  -6   13.31    1.13
  14   3  -6   11.20    1.12
  14   3   6   11.38    1.11
  14  -3  -6   12.86    1.14
  14  -4   6    0.33    0.15
 -14  -4  -6    1.36    0.66
  14  -4   6    0.88    0.18
  14   4  -6    0.93    0.71
  14   4   6    0.11    0.66
 -14  -4   6    0.34    0.76
  14  -4  -6    0.66    0.65
 -14  -5  -6    3.19    0.86
  14   5  -6    3.70    1.02
 -14  -5   6    4.34    0.97
  14   5   6    4.51    0.90
  14  -5  -6    3.25    0.81
  14   0  -7   -0.01    0.53
  14   0   7   -0.32    0.48
  14  -1   7   21.66    1.18
  14   1  -7   17.85    1.36
 -14  -1  -7   16.68    1.30
  14   1   7   14.86    1.25
  14  -1  -7   17.17    1.34
 -14   1  -7   16.13    1.22
  14  -2   7    0.95    0.30
 -14  -2  -7    0.01    0.54
  14   2  -7    1.11    0.63
  14   2   7    0.09    0.56
  14  -2  -7    0.33    0.55
  14   3  -7    0.45    0.64
  14  -3   7    0.11    0.16
 -14  -3  -7    0.66    0.62
  14  -3  -7    0.17    0.64
  14   3   7    0.25    0.64
  14   4  -7    2.14    0.68
 -14  -4  -7    3.21    0.80
  14   4   7    1.47    0.77
 -14  -5  -7    3.21    0.83
  14   5   7    1.74    0.85
 -14   0  -8   22.58    1.53
  14   0   8   27.30    1.52
  14   0  -8   19.62    1.62
 -14  -1  -8    2.45    0.60
  14   1  -8    3.24    0.75
  14   1   8    1.87    0.56
 -14   1  -8    2.75    0.52
  14  -1  -8    3.21    0.76
  14  -2   8    0.53    0.25
 -14  -2  -8    0.47    0.57
  14   2  -8    1.90    0.61
  14  -2  -8    0.59    0.60
  14   2   8    1.71    0.62
  14   3  -8    2.64    0.70
 -14  -3  -8    3.10    0.70
  14   3   8    3.29    0.79
  14  -3  -8    3.67    0.81
 -14  -4  -8    1.06    0.67
  14   4  -8   -0.65    0.72
  14   4   8   -0.11    0.81
 -14  -5  -8   -0.03    0.76
  14   5   8   -0.19    0.80
 -14   0  -9    0.40    0.50
  14   0   9   -0.01    0.44
  14   0  -9    0.32    0.66
  14  -1   9    0.55    0.32
 -14  -1  -9    1.33    0.57
 -14   1  -9    0.39    0.41
  14   1   9    0.12    0.56
  14  -1  -9    1.06    0.71
 -14  -2  -9    1.38    0.60
  14   2  -9    0.49    0.65
  14  -2  -9    0.97    0.70
  14   2   9    0.83    0.69
  14   3  -9   -0.58    0.65
 -14  -3  -9    0.23    0.65
  14   3   9   -0.06    0.77
  14  -3  -9   -0.16    0.80
 -14  -4  -9    7.01    1.02
  14   4   9   10.44    1.20
  14   0 -10   -0.19    0.67
 -14   0 -10    0.37    0.49
  14   0  10    0.23    0.46
  14   1 -10   -0.11    0.65
 -14  -1 -10    0.61    0.54
  14  -1  10    0.57    0.30
 -14   1 -10    0.76    0.41
  14   1  10    0.33    0.59
  14  -1 -10    0.70    0.73
  14   2 -10   -0.26    0.68
 -14  -2 -10    1.19    0.60
  14   2  10    0.16    0.69
  14  -2 -10    0.22    0.69
 -14  -3 -10    3.39    0.79
  14   3  10    4.12    0.90
  14  -3 -10    3.43    0.90
 -14   0 -11   -0.08    0.46
 -14  -1 -11    8.18    0.83
 -14  -2 -11    0.72    0.59
  14   2  11    0.62    0.57
 -14   0 -12    5.10    0.62
  15   0   0    0.33    0.40
  15   1   0   -0.16    0.52
 -15  -1   0    0.07    0.58
  15  -1   0    0.68    0.47
 -15  -2   0    5.01    0.77
  15   2   0    4.22    0.63
  15  -2   0    4.09    0.58
  15   3   0    2.03    0.69
 -15  -3   0    1.82    0.72
  15  -3   0    1.24    0.47
  15  -4   0   17.97    1.26
  15   4   0   18.93    1.52
 -15  -4   0   19.97    1.56
  15  -5   0    0.38    0.53
  15   5   0    0.99    0.78
  15  -5   0   -0.19    0.54
 -15  -5   0    0.69    0.77
  15  -6   0    1.04    0.69
  15  -6   0    2.19    0.59
  15   0  -1   13.33    0.99
  15   0   1   14.77    1.08
 -15   0  -1   13.48    1.16
  15  -1   1    2.83    0.49
 -15  -1  -1    1.50    0.69
  15   1  -1    2.86    0.63
  15   1   1    2.91    0.61
 -15  -1   1    1.99    0.73
  15  -1  -1    3.10    0.58
 -15  -2  -1   -0.01    0.66
  15  -2   1    0.20    0.40
  15   2  -1   -0.40    0.51
  15   2   1    0.07    0.44
 -15  -2   1   -0.30    0.68
  15  -2  -1    0.66    0.47
  15   3  -1   24.00    1.64
  15  -3   1   22.76    1.43
 -15  -3  -1   23.36    1.63
 -15  -3   1   21.89    1.58
  15  -3  -1   23.95    1.48
  15   3   1   24.20    1.63
  15   4  -1    0.70    0.64
 -15  -4  -1   -0.34    0.66
  15  -4   1    0.19    0.41
 -15  -4   1   -0.51    0.66
  15   4   1    0.24    0.69
  15  -4  -1    0.34    0.48
  15   5  -1    1.44    0.97
  15  -5   1    1.90    0.55
  15  -5   1    2.13    0.55
 -15  -5  -1    1.50    0.70
 -15  -5   1    0.83    0.71
  15   5   1    0.57    0.81
  15  -5  -1    1.99    0.64
  15  -6   1    3.58    0.69
 -15  -6  -1    2.08    0.90
  15  -6  -1    3.37    0.75
  15  -6  -1    3.31    0.79
  15   0  -2    0.27    0.51
 -15   0  -2   -0.09    0.60
  15   0   2    0.69    0.45
 -15  -1  -2   41.80    2.41
  15   1  -2   41.11    2.30
  15  -1   2   38.21    2.25
  15   1   2   40.48    2.32
  15  -1  -2   41.46    2.30
 -15  -2  -2   -0.55    0.51
  15   2  -2   -0.74    0.56
  15  -2   2    0.22    0.38
  15  -2  -2    0.15    0.47
  15   2   2   -0.07    0.48
 -15  -2   2   -0.79    0.61
  15  -3   2    5.63    0.57
 -15  -3  -2    4.48    0.84
  15   3  -2    3.63    0.77
 -15  -3   2    5.41    0.90
  15   3   2    4.53    0.75
  15  -3  -2    4.88    0.65
 -15  -4  -2    0.61    0.66
  15   4  -2    0.18    0.60
  15  -4   2    0.82    0.46
  15   4   2    0.19    0.54
  15  -4  -2   -0.36    0.47
 -15  -4   2   -0.08    0.66
  15  -5   2    1.16    0.66
  15   5  -2    0.23    0.75
  15  -5   2    0.63    0.46
 -15  -5  -2    0.14    0.71
  15  -5  -2    0.91    0.65
  15   5   2    0.44    0.70
 -15  -5   2    0.58    0.84
  15  -6   2    0.86    0.70
 -15  -6  -2   -0.30    0.80
  15  -6  -2   -0.52    0.66
  15   6   2    0.07    1.01
  15   0  -3   24.69    1.61
  15   0   3   23.91    1.54
 -15   0  -3   26.80    1.67
  15  -1   3    0.90    0.44
 -15  -1  -3    1.38    0.58
  15   1  -3    1.33    0.60
  15   1   3    1.76    0.56
  15  -1  -3    1.73    0.57
  15  -2   3    5.12    0.57
  15   2  -3    5.54    0.77
 -15  -2  -3    5.90    0.83
  15  -2  -3    5.70    0.73
  15   2   3    5.51    0.78
 -15  -2   3    5.35    0.77
  15   3  -3    8.46    0.87
 -15  -3  -3    7.25    0.92
  15  -3   3    9.63    0.80
 -15  -3   3    7.42    1.02
  15  -3  -3    7.39    0.83
  15   3   3    7.38    0.89
  15  -4   3    1.63    0.43
  15   4  -3    0.68    0.71
 -15  -4  -3    0.63    0.72
 -15  -4   3    1.08    0.79
  15   4   3    1.44    0.68
  15  -4  -3    0.35    0.56
  15   5  -3    6.26    0.94
  15  -5   3    5.37    0.57
  15  -5   3    4.72    0.59
 -15  -5  -3    4.38    0.93
  15   5   3    5.39    1.02
  15  -5  -3    6.98    0.84
 -15  -5   3    4.31    0.94
 -15  -6  -3   -0.07    0.85
  15  -6   3    0.96    0.50
  15  -6  -3    1.21    0.74
  15   6   3    1.11    0.72
  15   0  -4    0.25    0.56
  15   0   4   -0.09    0.44
 -15   0  -4    0.44    0.55
  15   1  -4    5.03    0.71
 -15  -1  -4    4.04    0.71
  15  -1   4    3.40    0.53
  15  -1  -4    3.71    0.68
  15   1   4    3.22    0.63
 -15  -2  -4    6.26    0.85
  15  -2   4    6.52    0.62
  15   2  -4    6.95    0.77
  15   2   4    5.85    0.78
  15  -2  -4    6.72    0.80
 -15  -3  -4    1.96    0.64
  15  -3   4    2.50    0.46
  15   3  -4    1.27    0.67
  15  -3  -4    2.22    0.62
 -15  -3   4    2.03    0.81
  15   3   4    2.35    0.72
  15   4  -4   12.59    1.19
 -15  -4  -4   11.44    1.19
  15  -4   4   12.95    0.98
  15   4   4   11.47    1.19
  15  -4  -4   13.10    1.09
 -15  -4   4   12.94    1.28
 -15  -5  -4    0.62    0.78
  15  -5   4    0.71    0.33
  15  -5   4    1.31    0.41
  15   5  -4    3.09    0.81
  15   5   4    2.06    0.86
  15  -5  -4    1.41    0.67
 -15  -5   4    1.90    0.75
 -15  -6  -4    4.45    1.53
  15  -6  -4    4.23    0.94
  15   0  -5   14.28    1.20
  15   0   5   11.79    1.03
 -15   0  -5   13.51    1.18
  15   1  -5    3.00    0.67
 -15  -1  -5    4.01    0.69
  15  -1   5    2.68    0.51
  15  -1  -5    2.72    0.67
  15   1   5    3.39    0.60
  15  -2   5    4.61    0.55
 -15  -2  -5    2.84    0.71
  15   2  -5    3.01    0.64
  15   2   5    3.22    0.69
  15  -2  -5    4.06    0.74
  15   3  -5    3.50    0.74
 -15  -3  -5    2.74    0.70
  15   3   5    2.87    0.75
  15  -3  -5    3.25    0.66
 -15  -4  -5    1.10    0.73
  15  -4   5    0.17    0.29
  15   4  -5    0.11    0.69
  15   4   5    0.21    0.75
  15  -4  -5    0.28    0.59
  15  -5   5    5.74    0.67
  15  -5   5    3.73    0.40
 -15  -5  -5    3.41    0.87
  15  -5  -5    6.51    0.98
  15   5   5    4.74    0.96
 -15  -5   5    5.49    1.02
  15   0  -6    0.20    0.53
  15   0   6   -0.64    0.42
 -15   0  -6   -0.36    0.55
  15   1  -6   13.17    1.16
 -15  -1  -6   13.08    1.15
  15  -1   6   14.91    1.05
  15  -1  -6   13.50    1.16
  15   1   6   11.36    1.07
  15   2  -6    0.54    0.50
  15  -2   6   -0.02    0.35
 -15  -2  -6    1.27    0.65
  15  -2  -6    0.47    0.56
  15   2   6    0.75    0.57
  15   3  -6    2.02    0.65
 -15  -3  -6    1.20    0.80
  15  -3   6    1.86    0.34
  15   3   6    0.76    0.65
  15  -3  -6    2.22    0.73
  15   4  -6    0.04    0.71
 -15  -4  -6    0.96    0.71
  15  -4   6    0.84    0.27
  15  -4   6    0.76    0.30
  15   4   6    0.75    0.75
  15  -4  -6    1.27    0.82
 -15  -5  -6    0.55    0.65
  15   5   6    3.16    0.96
  15  -5  -6    2.48    0.90
  15   0   7    7.73    0.77
  15   0  -7    9.75    1.00
 -15   0  -7    8.99    0.88
 -15  -1  -7    2.09    0.63
  15  -1   7    2.62    0.52
  15   1  -7    3.47    0.76
  15   1   7    2.53    0.58
  15  -1  -7    2.97    0.67
 -15  -2  -7    3.27    0.71
  15   2  -7    3.42    0.75
  15  -2   7    1.95    0.37
  15   2   7    1.87    0.65
  15  -2  -7    3.36    0.76
  15  -3   7    4.69    0.50
  15   3  -7    6.02    0.84
  15  -3  -7    5.93    0.88
  15   3   7    4.81    0.85
  15   4  -7   -0.39    0.84
 -15  -4  -7   -0.80    0.58
  15   4   7    0.81    0.77
  15  -4  -7    1.41    0.88
 -15  -5  -7    1.57    0.84
  15   5   7    4.02    1.03
  15  -5  -7    2.25    1.10
  15   0  -8    0.71    0.63
  15   0   8    0.42    0.64
  15   1  -8    1.96    0.69
 -15  -1  -8    1.16    0.60
  15  -1   8    1.60    0.41
  15   1   8    1.27    0.56
  15  -1  -8    1.97    0.69
 -15  -2  -8    5.50    0.79
  15   2  -8    5.49    0.84
  15  -2  -8    5.81    0.85
  15   2   8    6.20    0.88
  15   3  -8    0.72    0.72
 -15  -3  -8    0.39    0.72
  15   3   8    1.55    0.86
  15  -3  -8    0.75    0.62
 -15  -4  -8    3.11    0.82
  15   4   8    2.05    0.88
  15  -4  -8    2.74    0.91
 -15   0  -9    0.17    0.52
  15   0  -9    1.29    0.71
  15   0   9    1.12    0.50
  15  -1   9    0.77    0.35
  15   1  -9    1.83    0.68
 -15  -1  -9    0.48    0.59
  15  -1  -9    0.19    0.71
  15   1   9    0.53    0.62
 -15  -2  -9   15.79    1.33
  15   2  -9   15.99    1.46
  15   2   9   19.17    1.43
  15  -2  -9   14.49    1.33
 -15  -3  -9    0.82    0.69
  15  -3  -9    0.79    0.67
  15   3   9    1.14    0.84
  15   0  10   -0.14    0.24
 -15   0 -10   -0.35    0.49
  15   0 -10   -0.72    0.76
 -15  -1 -10    3.52    0.68
  15  -1  10    2.67    0.41
  15  -1 -10    3.81    0.87
  15   1  10    4.37    0.69
 -15  -2 -10    0.43    0.62
  15   2  10    1.27    0.72
 -15  -3 -10    0.34    0.64
  15   3  10    1.40    0.91
 -15   0 -11    0.25    0.49
 -15  -1 -11    5.85    0.77
  16   0   0   53.43    2.94
  16  -1   0    0.38    0.50
  16   1   0   -0.03    0.45
 -16  -1   0   -0.06    0.59
  16   2   0   43.92    2.51
  16  -2   0   42.36    2.39
 -16  -2   0   41.72    2.50
 -16  -3   0    0.23    0.75
  16   3   0   -0.49    0.64
  16  -3   0    0.10    0.43
 -16  -4   0    4.96    0.86
  16   4   0    5.38    0.88
  16  -4   0    4.81    0.69
 -16  -5   0    0.43    0.81
  16  -5   0    0.45    0.58
  16   5   0    0.02    0.73
  16   0  -1   -0.45    0.43
  16   0   1    0.63    0.45
  16   1  -1    3.92    0.68
  16  -1   1    3.09    0.56
 -16  -1  -1    2.80    0.77
  16   1   1    4.13    0.61
 -16  -1   1    2.76    1.38
  16  -1  -1    4.49    0.64
  16   2  -1    7.90    0.91
  16  -2   1    8.44    0.76
 -16  -2  -1    9.21    1.05
  16   2   1    7.29    0.86
 -16  -2   1    7.74    1.04
  16  -2  -1    8.56    0.80
  16  -3   1    1.32    0.46
  16   3  -1    1.33    0.55
 -16  -3  -1    2.00    0.72
 -16  -3   1    0.63    0.67
  16  -3  -1    1.05    0.48
  16   3   1    1.35    0.68
 -16  -4  -1    5.47    0.95
  16   4  -1    5.77    0.90
  16  -4   1    6.33    0.66
  16  -4  -1    7.20    0.76
 -16  -4   1    5.11    0.96
  16   4   1    4.94    0.90
 -16  -5  -1    1.57    0.88
  16   5  -1    1.65    0.82
  16  -5   1    1.42    0.58
  16  -5   1    2.46    0.57
  16  -5  -1    3.06    0.70
  16   5   1    0.70    0.80
 -16  -5   1    0.62    0.71
 -16   0  -2   -0.13    0.63
  16   0   2    0.42    0.49
  16   0  -2    0.42    0.54
  16  -1   2    0.35    0.45
 -16  -1  -2    0.74    0.68
  16   1  -2   -0.05    0.58
  16  -1  -2    0.61    0.46
  16   1   2    0.25    0.53
 -16  -2  -2    3.32    0.79
  16   2  -2    4.66    0.69
  16  -2   2    3.80    0.55
 -16  -2   2    4.15    0.79
  16  -2  -2    4.28    0.63
  16   2   2    3.32    0.81
  16  -3   2   20.21    1.30
  16   3  -2   21.09    1.58
 -16  -3  -2   21.26    1.55
 -16  -3   2   19.37    1.65
  16   3   2   19.62    1.51
  16  -3  -2   20.87    1.41
  16  -4   2    1.02    0.49
  16   4  -2    0.16    0.54
 -16  -4  -2    0.31    0.68
  16   4   2    0.19    0.63
 -16  -4   2    0.20    0.69
  16  -4  -2   -0.55    0.59
  16  -5   2    4.77    0.71
  16   5  -2    7.33    1.03
  16  -5   2    7.56    0.75
 -16  -5  -2    4.74    1.04
 -16  -5   2    6.07    1.00
  16   5   2    5.25    1.02
  16  -5  -2    8.93    0.92
  16   0   3   -0.54    0.44
  16   0  -3    0.95    0.54
 -16   0  -3   -0.46    0.59
 -16  -1  -3    4.01    0.77
  16  -1   3    5.31    0.61
  16   1  -3    4.33    0.73
  16   1   3    4.56    0.69
  16  -1  -3    3.89    0.69
  16  -2   3    2.19    0.47
  16   2  -3    2.52    0.67
 -16  -2  -3    1.62    0.62
 -16  -2   3    3.65    0.87
  16  -2  -3    2.06    0.60
  16   2   3    3.12    0.70
 -16  -3  -3    0.50    0.70
  16  -3   3    0.26    0.45
  16   3  -3    1.11    0.69
 -16  -3   3   -0.78    0.73
  16  -3  -3    0.19    0.56
  16   3   3    0.05    0.55
 -16  -4  -3    4.60    0.81
  16  -4   3    4.48    0.53
  16   4   3    4.10    0.87
 -16  -4   3    5.85    1.02
  16  -4  -3    5.00    0.76
  16  -5   3    1.66    0.47
  16   5  -3    1.51    0.94
  16  -5  -3    1.87    0.76
  16   5   3    1.31    0.85
 -16  -5   3    2.17    0.95
  16   0   4   25.55    1.69
 -16   0  -4   29.49    1.83
  16   0  -4   28.40    1.81
  16   1  -4    0.46    0.47
  16  -1   4   -0.29    0.41
 -16  -1  -4    0.00    0.59
  16  -1  -4   -0.50    0.57
  16   1   4    0.97    0.54
  16  -2   4   16.49    1.12
 -16  -2  -4   16.71    1.31
  16   2  -4   16.31    1.35
  16   2   4   14.19    1.28
  16  -2  -4   13.75    1.26
 -16  -3  -4    1.65    0.76
  16  -3   4    1.93    0.48
  16   3  -4    0.61    0.62
  16  -3  -4    2.18    0.67
  16   3   4    1.12    0.64
 -16  -3   4    1.55    0.71
  16  -4   4    1.92    0.43
 -16  -4  -4    1.20    0.66
  16   4  -4    2.04    0.75
  16   4   4    2.09    0.92
  16  -4  -4    1.42    0.69
 -16  -4   4    0.71    0.81
  16  -5   4   -0.32    0.37
  16   5   4    0.81    1.27
  16  -5  -4    1.10    0.75
  16   0  -5    0.35    0.61
 -16   0  -5   -0.35    0.58
  16   0   5   -0.16    0.45
 -16  -1  -5    5.62    0.82
  16   1  -5    6.60    0.76
  16  -1   5    6.58    0.66
  16   1   5    5.82    0.74
  16  -1  -5    4.59    0.80
  16  -2   5    7.25    0.67
 -16  -2  -5    6.50    0.82
  16   2  -5    5.96    0.87
  16  -2  -5    5.31    0.78
  16   2   5    5.10    0.77
  16  -3   5    0.00    0.34
 -16  -3  -5    1.45    0.74
  16   3  -5    0.44    0.67
  16   3   5   -0.37    0.64
  16  -3  -5   -0.29    0.62
 -16  -4  -5    2.62    0.77
  16  -4   5    3.20    0.43
  16   4  -5    4.17    0.82
 -16  -4   5    3.55    0.83
  16   4   5    4.80    0.96
  16  -4  -5    3.36    0.77
 -16  -5  -5    0.64    0.90
  16  -5   5    0.36    0.35
  16  -5  -5   -0.20    0.82
  16   5   5   -0.66    1.12
  16   0  -6    5.15    0.74
 -16   0  -6    4.33    0.75
  16   0   6    3.99    0.62
 -16  -1  -6    3.78    0.74
  16   1  -6    2.96    0.71
  16  -1   6    3.18    0.64
  16  -1  -6    2.33    0.64
  16   1   6    2.25    0.58
 -16  -2  -6    0.30    0.59
  16  -2   6    0.31    0.38
  16   2  -6    0.70    0.67
  16   2   6   -0.05    0.60
  16  -2  -6    1.01    0.66
  16  -3   6    3.29    0.44
 -16  -3  -6    4.16    0.79
  16   3  -6    3.11    0.80
  16  -3  -6    6.38    0.83
  16   3   6    4.26    0.82
  16  -4   6    0.24    0.30
  16  -4   6    0.81    0.28
 -16  -4  -6    0.28    0.75
  16   4   6   -0.62    0.85
  16  -4  -6    0.71    0.79
  16   0  -7   -0.09    0.64
  16   0   7    0.47    0.56
 -16   0  -7    0.57    0.59
 -16  -1  -7    7.04    0.85
  16  -1   7    4.95    0.62
  16   1  -7    6.60    0.92
  16   1   7    7.42    0.86
  16  -1  -7    7.39    0.93
  16   2  -7    2.68    0.63
 -16  -2  -7    2.67    0.72
  16  -2  -7    2.09    0.70
  16   2   7    2.31    0.80
  16  -3   7    3.45    0.53
  16   3  -7    2.22    0.81
 -16  -3  -7    3.40    0.74
  16  -3  -7    6.30    0.98
  16   3   7    2.92    0.77
 -16  -4  -7    0.99    0.74
  16  -4  -7   -1.92    1.10
  16   4   7    1.29    0.90
  16   0  -8    1.88    0.91
 -16   0  -8    3.42    0.67
  16   0   8    3.32    0.67
 -16  -1  -8    1.80    0.65
  16   1  -8    2.14    0.65
  16  -1   8    2.13    0.49
  16   1   8    3.57    0.73
  16   2  -8    7.26    1.00
 -16  -2  -8    4.71    0.85
  16   2   8   10.70    1.03
  16  -2  -8    8.56    1.33
 -16  -3  -8    0.12    0.71
  16   3   8   -0.06    0.81
  16  -3  -8    0.80    0.76
 -16   0  -9    0.64    0.58
  16   0   9   -0.98    0.47
  16   0  -9   -0.89    0.68
  16   1  -9    0.71    0.79
 -16  -1  -9    0.39    0.61
  16  -1   9   -0.57    0.29
  16  -1  -9    1.40    0.73
  16   1   9   -0.85    0.62
  16  -2   9    1.51    0.24
 -16  -2  -9    2.01    0.72
  16   2   9    2.85    0.77
  16  -2  -9    3.01    0.84
 -16  -3  -9   -0.69    0.66
  16   3   9    0.43    0.83
  16  -3  -9    0.20    1.24
 -16   0 -10    1.09    0.58
 -16  -1 -10    0.42    0.60
 -16  -2 -10   -0.55    0.63
  16   2  10   -0.04    0.40
  17   0   0    0.06    0.55
  17  -1   0    0.21    0.51
 -17  -1   0    0.80    0.59
  17   1   0    0.00    0.58
  17   2   0    9.00    0.96
 -17  -2   0    7.31    0.96
  17  -2   0    8.88    0.81
 -17  -3   0    1.01    0.77
  17  -3   0    0.07    0.48
  17   3   0    0.10    0.65
 -17  -4   0    4.99    0.84
  17  -4   0    7.59    0.80
  17   4   0    5.18    0.91
  17   5   0   -0.95    0.70
  17  -5   0    0.11    0.60
 -17  -5   0   -0.26    0.76
  17   0   1    0.08    0.52
  17   0  -1    0.30    0.57
  17   1  -1   12.66    1.10
 -17  -1  -1   10.31    1.12
  17  -1   1   10.20    0.93
  17   1   1    8.94    1.42
  17  -1  -1   13.11    1.05
  17  -2   1    5.44    0.66
  17   2  -1    5.65    0.73
 -17  -2  -1    6.43    0.95
  17  -2  -1    5.30    0.69
  17   2   1    6.20    0.84
 -17  -2   1    5.05    0.96
  17   3  -1    1.48    0.69
  17  -3   1    2.49    0.58
 -17  -3  -1    0.71    0.78
  17   3   1    0.79    0.70
  17  -3  -1    1.36    0.55
 -17  -3   1    0.89    0.73
 -17  -4  -1    1.51    0.81
  17  -4   1    2.29    0.58
  17   4   1    1.96    0.87
 -17  -4   1    2.54    0.88
  17  -4  -1    2.57    0.68
 -17  -5  -1    4.98    1.00
  17   5  -1    5.39    1.13
  17  -5  -1    7.16    0.84
 -17  -5   1    3.46    1.04
  17   5   1    4.21    0.91
  17   0   2   -0.10    0.46
  17   0  -2   -0.32    0.51
  17   1  -2   18.76    1.42
  17  -1   2   16.84    1.26
 -17  -1  -2   19.35    1.53
  17  -1  -2   18.53    1.33
  17   1   2   19.16    1.37
  17  -2   2    0.22    0.45
  17   2  -2   -0.64    0.61
 -17  -2  -2    0.60    0.75
  17  -2  -2    0.29    0.94
  17   2   2   -0.37    0.62
 -17  -2   2   -0.23    0.67
  17  -3   2   11.58    0.95
  17   3  -2   13.32    1.14
 -17  -3  -2    9.05    1.09
 -17  -3   2    9.44    1.20
  17   3   2   12.52    1.12
  17  -3  -2   12.42    1.08
 -17  -4  -2   -1.13    0.77
  17  -4   2    0.14    0.52
  17   4  -2   -0.23    0.64
  17   4   2    0.89    0.75
 -17  -4   2    0.29    1.07
  17  -4  -2    0.15    0.72
  17  -5   2    0.38    0.59
 -17  -5  -2    0.75    0.85
  17  -5  -2    0.92    0.73
  17   5   2    0.54    0.90
 -17   0  -3    8.28    0.99
  17   0  -3   10.10    0.95
  17   0   3    8.65    0.85
 -17  -1  -3    0.26    0.71
  17  -1   3    0.73    0.46
  17   1  -3    0.95    0.51
  17  -1  -3    0.24    0.56
  17   1   3    0.62    0.53
 -17  -2  -3    6.17    0.94
  17  -2   3    7.96    0.73
  17   2  -3    7.99    0.95
  17   2   3    7.70    0.93
  17  -2  -3    8.83    0.86
 -17  -3  -3    7.75    0.95
  17   3  -3    7.42    0.98
  17  -3   3    9.60    0.79
  17  -3  -3    8.10    0.87
  17   3   3    6.52    0.89
 -17  -3   3    6.35    1.03
  17   4  -3    0.25    0.56
 -17  -4  -3    0.70    0.80
  17  -4   3    0.30    0.50
 -17  -4   3    1.13    0.87
  17   4   3   -0.13    0.84
  17  -4  -3    0.40    0.60
  17  -5   3    3.20    0.62
 -17  -5  -3    0.50    0.83
  17  -5  -3    1.61    0.80
  17   5   3    0.85    0.77
  17   0  -4    0.11    0.62
  17   0   4   -0.62    0.46
 -17   0  -4   -0.63    0.64
  17   1  -4    3.78    0.70
  17  -1   4    3.17    0.56
 -17  -1  -4    1.94    0.76
  17   1   4    2.19    0.63
  17  -1  -4    3.23    0.71
  17  -2   4    5.30    0.65
  17   2  -4    2.77    0.71
  17   2   4    3.65    0.86
  17  -2  -4    3.57    0.67
 -17  -3  -4    1.53    0.65
  17  -3   4    1.16    0.45
  17   3   4    1.95    0.66
  17  -3  -4    2.38    0.65
 -17  -3   4    0.98    0.79
  17   4  -4   10.69    1.09
 -17  -4  -4   11.46    1.22
  17   4   4   14.02    1.31
  17  -4  -4   12.72    1.14
 -17  -4   4   10.78    1.20
 -17  -5  -4    0.06    0.83
  17  -5   4   -0.44    0.46
  17  -5   4   -0.83    0.18
  17   5   4    0.55    0.91
  17  -5  -4   -0.16    0.81
  17   0  -5   18.09    1.46
  17   0   5   19.93    1.37
 -17   0  -5   17.07    1.44
  17   1  -5   10.27    1.04
  17  -1   5   13.26    1.02
 -17  -1  -5   11.06    1.11
  17  -1  -5   11.31    1.05
  17   1   5    9.78    0.95
  17   2  -5    1.56    0.68
 -17  -2  -5   -0.58    0.68
  17  -2   5    1.05    0.46
  17  -2  -5    0.51    0.61
  17   2   5    0.65    0.62
  17   3  -5   -0.84    0.65
  17  -3   5    0.01    0.39
 -17  -3  -5   -0.14    0.66
  17  -3  -5    0.72    0.64
  17   3   5    1.02    0.68
 -17  -4  -5    1.09    0.80
  17  -4  -5    1.48    0.79
  17   4   5   -0.10    0.83
  17   0   6    0.16    0.50
  17   0  -6    0.44    0.57
 -17   0  -6    0.88    0.65
  17  -1   6   11.88    1.00
 -17  -1  -6    7.02    0.96
  17   1  -6    7.74    0.90
  17  -1  -6    8.77    0.94
  17   1   6   10.07    0.97
  17  -2   6   -0.32    0.42
  17   2  -6    0.73    0.70
 -17  -2  -6    0.18    0.68
  17  -2  -6    0.93    0.75
  17   2   6    0.15    0.73
  17   3  -6    1.58    0.73
 -17  -3  -6    2.75    0.81
  17  -3   6    0.62    0.31
  17   3   6    1.67    0.73
  17  -3  -6    2.58    0.85
 -17  -4  -6    0.30    0.72
  17  -4   6    0.05    0.33
  17  -4  -6    1.95    0.85
  17   4   6    1.53    0.86
  17   0   7    3.83    0.70
 -17   0  -7    2.98    0.71
  17   1  -7    1.01    0.73
 -17  -1  -7    0.64    0.65
  17  -1   7   -0.19    0.48
  17  -1  -7    0.57    0.71
  17   1   7    0.15    0.66
 -17  -2  -7    4.62    0.82
  17   2  -7    3.83    0.86
  17  -2  -7    5.35    0.96
  17   2   7    5.29    0.91
 -17  -3  -7    4.51    0.86
  17  -3   7    2.31    0.46
  17   3   7    4.67    0.95
  17  -3  -7    5.34    1.05
  17   0   8    0.01    0.56
 -17   0  -8   -0.46    0.60
  17   0  -8   -0.81    0.57
  17   1  -8    2.08    0.72
 -17  -1  -8    0.95    0.67
  17  -1  -8    2.66    0.75
  17   1   8    2.33    0.73
 -17  -2  -8    2.21    0.75
  17  -2  -8    1.44    0.77
  17   2   8    2.16    0.79
 -17  -3  -8   -0.17    0.69
  17  -3  -8   -0.15    0.77
  17   3   8    0.36    0.77
 -17   0  -9   12.97    1.61
 -17  -1  -9   -0.39    0.61
  17   1   9   -0.48    0.22
 -17  -2  -9    0.16    0.64
  17  -2   9   -0.12    0.11
  17   2   9   -0.59    0.73
  18   0   0   43.42    2.51
 -18  -1   0   -0.85    0.63
  18  -1   0    0.03    0.52
  18   1   0    0.35    0.55
 -18  -2   0   25.82    1.92
  18   2   0   28.47    1.81
  18  -2   0   27.02    1.72
  18  -3   0    1.08    0.60
 -18  -3   0    1.10    0.74
  18   3   0   -0.35    0.57
 -18  -4   0    0.90    0.78
  18   4   0    0.48    0.68
  18  -4   0    1.38    0.63
  18   0  -1    0.68    0.61
  18   0   1   -0.30    0.50
 -18  -1  -1    4.26    0.90
  18  -1   1    4.82    0.69
  18   1  -1    4.19    0.77
  18   1   1    4.82    0.73
  18  -1  -1    5.22    0.72
  18  -2   1    2.74    0.60
 -18  -2  -1    2.77    0.80
  18   2  -1    1.97    0.74
  18  -2  -1    4.38    0.66
 -18  -2   1    2.26    0.86
  18   2   1    2.70    0.70
  18  -3   1    1.69    0.60
 -18  -3  -1    1.99    0.84
  18   3  -1    0.16    0.71
  18  -3  -1    1.33    0.62
  18   3   1    0.29    0.78
 -18  -3   1    0.31    0.75
  18   4  -1    4.71    0.96
  18  -4   1    8.94    0.83
 -18  -4   1    7.03    1.09
  18   4   1    8.80    1.32
  18  -4  -1    7.14    0.87
  18   0  -2    1.27    0.56
  18   0   2    1.30    0.57
 -18  -1  -2    2.51    1.47
  18   1  -2    1.94    0.57
  18  -1   2    1.39    0.52
  18  -1  -2    1.33    0.60
  18   1   2    1.53    0.58
  18   2  -2    1.49    0.61
 -18  -2  -2    2.24    0.88
  18  -2   2    2.01    0.59
  18  -2  -2    1.23    0.62
  18   2   2    1.12    0.67
 -18  -2   2    1.46    0.81
 -18  -3  -2    8.19    1.09
  18  -3   2    9.64    0.84
  18   3  -2    6.65    0.99
  18   3   2   11.40    1.14
  18  -3  -2    7.56    0.87
 -18  -3   2    6.89    1.12
  18  -4   2    0.24    0.41
 -18  -4  -2   -0.14    0.74
  18   4  -2   -0.15    0.75
  18  -4  -2   -0.77    0.68
  18   4   2    0.06    0.84
 -18  -4   2    0.63    0.77
  18   0   3   -0.22    0.49
  18   0  -3   -0.43    0.58
  18   1  -3    1.56    0.68
  18  -1   3    3.59    0.66
 -18  -1  -3    4.09    0.84
  18   1   3    1.71    0.62
  18  -1  -3    2.75    0.63
 -18  -2  -3    1.07    0.76
  18   2  -3    1.57    0.64
  18  -2   3    0.64    0.53
  18   2   3    0.44    0.65
  18  -2  -3    1.08    0.64
  18   3  -3    0.10    0.61
  18  -3   3    0.33    0.52
 -18  -3  -3   -1.86    0.70
  18  -3  -3    0.38    0.58
 -18  -3   3   -0.46    1.31
  18   3   3   -0.25    0.67
  18   4  -3    4.90    1.45
 -18  -4  -3    3.25    0.90
 -18  -4   3    2.77    0.98
  18   4   3    3.33    0.96
  18  -4  -3    5.79    0.92
  18   0  -4   21.19    1.59
 -18   0  -4   17.65    1.60
  18   0   4   24.44    1.53
  18   1  -4    0.75    0.69
 -18  -1  -4   -0.46    0.68
  18  -1   4   -0.11    0.55
  18   1   4    0.13    0.67
  18  -1  -4   -0.40    0.56
  18  -2   4   13.21    1.06
 -18  -2  -4    9.32    1.15
  18   2  -4   12.00    1.16
  18  -2  -4   15.74    1.33
  18   2   4   11.81    1.10
  18   3  -4    1.61    0.62
  18  -3   4    1.47    0.88
 -18  -3  -4    0.33    0.78
  18  -3  -4    1.55    0.70
  18   3   4    1.02    0.68
 -18  -4  -4    1.10    0.77
  18   4   4   -0.73    0.83
  18  -4  -4   -0.19    0.77
  18   0  -5    0.10    0.65
  18   0   5   -0.65    0.59
 -18   0  -5    0.23    0.71
  18   1  -5    3.10    0.78
  18  -1   5    3.07    0.64
 -18  -1  -5    3.99    0.82
  18   1   5    3.10    0.76
  18  -1  -5    2.89    0.71
  18   2  -5    4.16    0.79
 -18  -2  -5    3.94    0.80
  18  -2  -5    4.27    0.89
  18   2   5    3.02    0.72
 -18  -3  -5    0.63    0.78
  18   3  -5    0.09    0.64
  18  -3  -5    0.77    0.78
  18   3   5    0.08    0.73
 -18  -4  -5    3.12    0.86
  18  -4  -5    6.95    1.03
  18   4   5    6.90    1.01
 -18   0  -6    4.01    0.83
  18   0  -6    3.94    0.85
  18   0   6    5.03    0.74
 -18  -1  -6    1.42    0.73
  18   1  -6    0.68    0.65
  18  -1   6    0.33    0.55
  18   1   6    1.42    0.71
  18  -1  -6    2.78    0.83
  18   2  -6    0.91    0.62
  18  -2   6   -0.18    0.19
 -18  -2  -6    0.04    0.73
  18  -2  -6    1.15    0.73
  18   2   6   -1.47    0.73
 -18  -3  -6    4.18    0.87
  18   3   6    5.36    0.99
  18  -3  -6    4.90    0.93
  18   0  -7    0.67    0.76
  18   0   7   -1.22    0.59
 -18   0  -7    0.84    0.71
 -18  -1  -7    3.56    0.81
  18   1  -7    2.80    0.81
  18   1   7    4.66    0.83
  18  -1  -7    3.93    0.86
  18  -2  -7    0.93    0.85
  18   2   7    1.33    1.35
 -18   0  -8    3.29    0.74
 -18  -1  -8    0.14    0.68
  18  -1   8   -0.34    0.13
  18  -1  -8    0.57    0.84
  18   1   8   -0.74    0.59
 -18  -2  -8    2.38    0.86
  18   2   8    1.71    0.82
  18  -2  -8    3.63    1.24
  19   0   0    1.05    0.55
  19   1   0   -0.48    0.59
  19  -1   0    0.73    0.57
  19   2   0    4.46    0.91
  19  -2   0    6.61    0.79
 -19  -2   0    3.88    0.88
 -19  -3   0    0.17    0.71
  19   3   0   -0.81    0.78
  19  -3   0    0.60    0.61
  19  -4   0    8.15    0.89
 -19  -4   0    5.58    1.06
  19   4   0    6.57    0.98
  19   0  -1    2.41    0.69
  19   0   1    1.69    0.58
  19  -1   1    2.14    0.66
  19   1  -1    1.28    0.70
 -19  -1  -1    0.46    0.81
  19   1   1    0.70    0.66
  19  -1  -1    1.23    0.61
  19   2  -1    1.30    0.64
 -19  -2  -1    0.07    0.70
  19  -2   1    0.62    0.62
  19   2   1    0.78    0.69
 -19  -2   1    0.52    0.84
  19  -2  -1    1.34    0.61
  19  -3   1    3.85    0.68
 -19  -3  -1    1.86    0.87
  19   3   1    3.48    0.84
  19  -3  -1    3.90    0.78
  19   4  -1    0.44    0.83
  19  -4   1   -0.06    0.27
 -19  -4  -1   -0.17    0.74
  19  -4  -1    0.01    0.80
  19   4   1    0.09    0.82
 -19  -4   1    0.03    0.89
  19   0   2   -0.27    0.55
  19   0  -2   -0.68    0.54
  19  -1   2   21.33    1.39
  19   1  -2   15.69    1.44
 -19  -1  -2   15.77    1.44
  19  -1  -2   16.85    1.36
  19   1   2   16.20    1.37
  19  -2   2   -0.41    0.57
 -19  -2  -2   -0.58    0.68
  19   2  -2   -1.25    0.75
  19   2   2   -0.83    0.54
  19  -2  -2    0.41    0.54
  19  -3   2    4.65    0.66
  19   3  -2    2.95    0.84
 -19  -3  -2    1.98    0.88
 -19  -3   2    1.04    0.89
  19  -3  -2    3.69    0.77
  19   3   2    3.90    0.92
  19  -4   2   -0.65    0.14
 -19  -4  -2   -0.41    0.67
  19  -4  -2    0.41    0.68
  19   4   2   -0.62    0.69
  19   0   3    6.67    0.85
  19   0  -3    5.11    0.90
  19   1  -3    1.49    0.79
 -19  -1  -3    0.53    0.75
  19  -1   3    0.84    0.61
  19   1   3    0.43    0.61
  19  -1  -3    1.54    0.65
 -19  -2  -3    6.60    0.95
  19   2  -3    6.06    1.63
  19  -2   3    7.99    0.82
  19  -2  -3    6.64    0.88
  19   2   3    7.02    0.88
  19   3  -3    1.96    0.82
 -19  -3  -3    2.97    0.88
  19  -3   3    0.89    0.37
 -19  -3   3    2.70    0.85
  19  -3  -3    3.80    0.83
  19   3   3    1.97    0.84
  19   0  -4   -0.19    0.75
  19   0   4    0.40    0.64
  19  -1   4    3.75    0.70
 -19  -1  -4    2.11    1.22
  19   1  -4    4.04    0.91
  19  -1  -4    1.81    0.70
 -19  -2  -4    5.14    0.94
  19  -2   4    7.79    0.78
  19   2  -4    6.31    0.98
  19   2   4    6.24    0.85
  19  -2  -4    7.47    0.98
  19   3  -4   -0.77    1.23
 -19  -3  -4    0.46    0.77
  19   3   4    1.38    0.78
  19  -3  -4    1.22    0.77
  19   0   5    3.77    0.74
  19   0  -5    2.65    0.95
 -19  -1  -5    0.51    0.74
  19  -1   5   -0.10    0.56
  19   1  -5    0.80    0.72
  19  -1  -5    0.54    0.69
  19   1   5    0.09    0.72
  19   2  -5    2.91    0.86
 -19  -2  -5    2.96    0.88
  19  -2  -5    3.97    0.87
  19   2   5    4.91    0.90
 -19  -3  -5    3.27    0.85
  19   3   5    5.75    0.96
  19  -3  -5    6.04    0.95
 -19   0  -6    0.10    0.67
  19   0  -6    0.17    0.62
  19   0   6   -0.14    0.61
  19   1  -6    7.01    0.99
 -19  -1  -6    5.28    0.95
  19   1   6    8.62    0.96
  19  -1  -6    8.04    1.09
 -19  -2  -6    0.90    0.79
  19   2   6   -1.44    0.73
  19  -2  -6   -0.17    0.67
 -19   0  -7    3.42    0.80
  19   0  -7    2.71    1.26
 -19  -1  -7    0.20    0.71
  19  -1   7   -0.83    0.27
  19  -1  -7   -0.44    0.66
  19   1   7    0.18    0.71
  20   0   0   33.53    2.09
  20   1   0    0.09    0.72
  20  -1   0    0.42    0.61
  20  -2   0   19.44    1.45
  20   2   0   16.99    1.56
 -20  -2   0   18.17    1.64
  20  -3   0   -0.69    0.68
 -20  -3   0   -0.52    0.65
  20   3   0   -0.93    0.75
  20   0   1   -0.40    0.59
  20   0  -1   -0.28    0.62
  20  -1   1    1.20    0.68
  20   1  -1    1.03    0.71
  20  -1  -1    0.91    0.65
  20   1   1    1.68    0.68
 -20  -2  -1    2.08    0.78
  20  -2   1    3.43    0.73
  20   2  -1    2.76    0.90
  20  -2  -1    3.66    0.79
  20   2   1    3.45    0.87
  20   3  -1   -0.87    0.75
  20  -3   1    0.77    0.63
  20   3   1   -0.34    0.76
  20  -3  -1    1.21    0.70
 -20  -3   1    0.48    0.82
  20   0  -2    2.55    0.75
  20   0   2    2.67    0.76
 -20  -1  -2    4.90    1.04
  20  -1   2    4.78    0.78
  20   1  -2    5.35    0.95
  20   1   2    3.82    0.79
  20  -1  -2    4.18    0.84
  20   2  -2    0.10    0.79
  20  -2   2    0.22    0.60
 -20  -2  -2   -0.02    0.68
  20  -2  -2    0.71    0.67
  20   2   2    0.48    0.73
 -20  -3  -2    4.77    0.96
  20   3  -2    4.03    0.94
 -20  -3   2    7.41    1.12
  20   3   2    6.16    1.15
  20  -3  -2    5.42    0.87
  20   0  -3    1.14    0.78
  20   0   3   -0.61    0.73
 -20  -1  -3    1.52    0.79
  20  -1   3    0.84    0.64
  20   1  -3    1.66    1.31
  20  -1  -3    0.65    0.68
  20   1   3    0.72    0.70
 -20  -2  -3    0.98    0.74
  20  -2   3    0.66    0.61
  20   2  -3    0.79    0.73
  20   2   3    0.41    0.76
  20  -2  -3    1.69    0.70
  20   0   4   25.23    1.70
  20   0  -4   23.08    2.40
 -20  -1  -4    3.52    0.92
  20   1  -4    4.50    0.88
  20  -1   4    3.89    0.71
  20  -1  -4    3.69    0.79
  20   1   4    3.26    0.81
 -20  -2  -4    3.88    0.93
  20   2  -4    3.84    0.88
  20  -2  -4    4.27    0.84
  20   2   4    5.72    0.94
  20   0  -5    0.42    0.74
  20   0   5    1.08    0.68
 -20  -1  -5    0.93    0.76
  20   1  -5    2.71    0.82
  20   1   5    1.21    0.76
  20  -1  -5    1.63    0.79
  20   0  -6    2.22    0.91
  21   0   0   -0.92    0.69
  21   1   0   -0.56    0.66
  21  -1   0   -0.51    0.72
  21   2   0    4.96    1.18
  21  -2   0    4.56    0.84
  21   0   1    6.13    0.93
  21   0  -1    4.17    0.80
  21  -1   1    0.26    0.67
  21   1  -1    1.12    0.80
  21  -1  -1    0.08    0.70
  21   1   1   -0.49    0.72
 -21  -2  -1   -0.18    0.75
  21   2  -1   -0.42    0.73
  21  -2   1   -0.25    0.66
  21   2   1    0.57    0.68
  21  -2  -1    0.32    0.70
  21   0  -2   -1.13    0.70
  21   0   2   -0.94    0.70
  21   1  -2   10.89    1.24
  21  -1   2   12.46    1.11
  21  -1  -2   10.58    1.15
  21   1   2   11.88    1.19
  21   0   3    4.22    0.82
  21  -1   3    1.49    0.68
  21   1  -3    0.73    0.71
  21   1   3    0.30    0.75
  21  -1  -3    0.36    0.72
   0   0   0    0.00    0.00
;
_shelx_hkl_checksum    6335

