 
data_000
 
_audit_creation_method            SHELXL-2014
_chemical_name_systematic
;
 ?
;
_chemical_name_common             ?
_chemical_melting_point           ?
_chemical_formula_moiety          ?
_chemical_formula_sum
 'Ge2 Na2 S6 Zn' 
_chemical_formula_weight          448.89

loop_
 _atom_type_symbol
 _atom_type_description
 _atom_type_scat_dispersion_real
 _atom_type_scat_dispersion_imag
 _atom_type_scat_source
 'Na'  'Na'   0.0362   0.0249
 'International Tables Vol C Tables 4.2.6.8 and 6.1.1.4'
 'S'  'S'   0.1246   0.1234
 'International Tables Vol C Tables 4.2.6.8 and 6.1.1.4'
 'Zn'  'Zn'   0.2839   1.4301
 'International Tables Vol C Tables 4.2.6.8 and 6.1.1.4'
 'Ge'  'Ge'   0.1547   1.8001
 'International Tables Vol C Tables 4.2.6.8 and 6.1.1.4'
 
_space_group_crystal_system       monoclinic
_space_group_IT_number            9
_space_group_name_H-M_alt         'C c'
_space_group_name_Hall            'C -2yc'
 
_shelx_space_group_comment
;
The symmetry employed for this shelxl refinement is uniquely defined
by the following loop, which should always be used as a source of
symmetry information in preference to the above space-group names.
They are only intended as comments.
;
 
loop_
 _space_group_symop_operation_xyz
 'x, y, z'
 'x, -y, z+1/2'
 'x+1/2, y+1/2, z'
 'x+1/2, -y+1/2, z+1/2'
 
_cell_length_a                    7.284(9)
_cell_length_b                    12.346(15)
_cell_length_c                    11.447(14)
_cell_angle_alpha                 90
_cell_angle_beta                  100.627(13)
_cell_angle_gamma                 90
_cell_volume                      1012(2)
_cell_formula_units_Z             4
_cell_measurement_temperature     296(2)
_cell_measurement_reflns_used     459 
_cell_measurement_theta_min       3.3 
_cell_measurement_theta_max       26 
 
_exptl_crystal_description        block 
_exptl_crystal_colour             colourless
_exptl_crystal_density_meas       ? 
_exptl_crystal_density_method     ?              
_exptl_crystal_density_diffrn     2.947          
_exptl_crystal_F_000              848
_exptl_transmission_factor_min    ?                                     
_exptl_transmission_factor_max    ?                                     
_exptl_crystal_size_max           0.235 
_exptl_crystal_size_mid           0.135
_exptl_crystal_size_min           0.116 
_exptl_absorpt_coefficient_mu     9.507

_shelx_estimated_absorpt_T_min    ? 
_shelx_estimated_absorpt_T_max    ? 
_exptl_absorpt_correction_type    multi-scan 
_exptl_absorpt_correction_T_min   0.4504 
_exptl_absorpt_correction_T_max   0.7456 
_exptl_absorpt_process_details    SADABS 
 
_exptl_special_details
;
 ?
;
 
_diffrn_ambient_temperature       296(2)
_diffrn_radiation_wavelength      0.71073
_diffrn_radiation_type            MoK\a
_diffrn_source                    'sealed tube'                       
_diffrn_measurement_device_type    'CCD area detector' 
_diffrn_measurement_method        'phi and omega scans' 
_diffrn_detector_area_resol_mean  ? 
_diffrn_reflns_number             2962
_diffrn_reflns_av_unetI/netI      0.0742
_diffrn_reflns_av_R_equivalents   0.0382
_diffrn_reflns_limit_h_min        -9
_diffrn_reflns_limit_h_max        9
_diffrn_reflns_limit_k_min        -15
_diffrn_reflns_limit_k_max        9
_diffrn_reflns_limit_l_min        -14
_diffrn_reflns_limit_l_max        14
_diffrn_reflns_theta_min          3.290
_diffrn_reflns_theta_max          27.397
_diffrn_reflns_theta_full         25.242
_diffrn_measured_fraction_theta_max   0.988
_diffrn_measured_fraction_theta_full  0.997
_diffrn_reflns_Laue_measured_fraction_max    0.988
_diffrn_reflns_Laue_measured_fraction_full   0.997
_diffrn_reflns_point_group_measured_fraction_max   0.819
_diffrn_reflns_point_group_measured_fraction_full  0.847
_reflns_number_total              1887
_reflns_number_gt                 1694
_reflns_threshold_expression      'I > 2\s(I)'
_reflns_Friedel_coverage          0.654
_reflns_Friedel_fraction_max      0.650
_reflns_Friedel_fraction_full     0.696
 
_reflns_special_details
;
 Reflections were merged by SHELXL according to the crystal
 class for the calculation of statistics and refinement.
 
 _reflns_Friedel_fraction is defined as the number of unique
 Friedel pairs measured divided by the number that would be
 possible theoretically, ignoring centric projections and
 systematic absences.
;
 
_computing_data_collection        'Bruker SMART'
_computing_cell_refinement        'Bruker SMART'
_computing_data_reduction         'Bruker SAINT'
_computing_structure_solution     'Bruker SHELXTL'
_computing_structure_refinement   'SHELXL-2014 (Sheldrick, 2014)'
_computing_molecular_graphics     'Bruker SHELXTL'
_computing_publication_material   'Bruker SHELXTL'
 
_refine_special_details
;
 ?
;
_refine_ls_structure_factor_coef  Fsqd
_refine_ls_matrix_type            full
_refine_ls_weighting_scheme       calc
_refine_ls_weighting_details
'w=1/[\s^2^(Fo^2^)+(0.0118P)^2^] where P=(Fo^2^+2Fc^2^)/3'
_atom_sites_solution_primary      ?
_atom_sites_solution_secondary    ?
_atom_sites_solution_hydrogens    .
_refine_ls_hydrogen_treatment     undef
_refine_ls_extinction_method      none
_refine_ls_extinction_coef        .
_refine_ls_abs_structure_details
;
 Flack x determined using 594 quotients [(I+)-(I-)]/[(I+)+(I-)]
 (Parsons, Flack and Wagner, Acta Cryst. B69 (2013) 249-259).
;
_refine_ls_abs_structure_Flack    0.04(2)
_chemical_absolute_configuration  ?
_refine_ls_number_reflns          1887
_refine_ls_number_parameters      100
_refine_ls_number_restraints      2
_refine_ls_R_factor_all           0.0435
_refine_ls_R_factor_gt            0.0374
_refine_ls_wR_factor_ref          0.0680
_refine_ls_wR_factor_gt           0.0651
_refine_ls_goodness_of_fit_ref    0.966
_refine_ls_restrained_S_all       0.965
_refine_ls_shift/su_max           0.000
_refine_ls_shift/su_mean          0.000
 
loop_
 _atom_site_label
 _atom_site_type_symbol
 _atom_site_fract_x
 _atom_site_fract_y
 _atom_site_fract_z
 _atom_site_U_iso_or_equiv
 _atom_site_adp_type
 _atom_site_occupancy
 _atom_site_site_symmetry_order  
 _atom_site_calc_flag
 _atom_site_refinement_flags_posn
 _atom_site_refinement_flags_adp
 _atom_site_refinement_flags_occupancy
 _atom_site_disorder_assembly
 _atom_site_disorder_group
Ge1 Ge 0.21273(13) 0.52320(9) 0.65576(9) 0.0144(3) Uani 1 1 d . . . . .
Ge2 Ge -0.11576(15) 0.14109(9) 0.40666(10) 0.0154(3) Uani 1 1 d . . . . .
Zn3 Zn 0.00779(16) 0.25593(11) 0.68341(11) 0.0193(3) Uani 1 1 d . . . . .
Na1 Na 0.4478(8) 0.3004(5) 0.5189(5) 0.0464(15) Uani 1 1 d . . . . .
Na2 Na 0.3417(8) -0.0095(5) 0.3874(6) 0.0557(17) Uani 1 1 d . . . . .
S1 S 0.1378(4) 0.1672(3) 0.5359(2) 0.0212(6) Uani 1 1 d . . . . .
S2 S -0.0510(4) 0.4422(2) 0.6644(2) 0.0211(6) Uani 1 1 d . . . . .
S3 S 0.2119(4) 0.6918(2) 0.7066(3) 0.0192(6) Uani 1 1 d . . . . .
S4 S -0.0301(4) 0.0686(2) 0.2448(2) 0.0192(6) Uani 1 1 d . . . . .
S5 S -0.2977(4) 0.2810(2) 0.3663(2) 0.0221(7) Uani 1 1 d . . . . .
S6 S -0.2661(4) -0.0021(3) 0.4651(2) 0.0237(7) Uani 1 1 d . . . . .
 
loop_
 _atom_site_aniso_label
 _atom_site_aniso_U_11
 _atom_site_aniso_U_22
 _atom_site_aniso_U_33
 _atom_site_aniso_U_23
 _atom_site_aniso_U_13
 _atom_site_aniso_U_12
Ge1 0.0150(6) 0.0127(6) 0.0152(6) 0.0002(5) 0.0017(4) -0.0003(5)
Ge2 0.0140(5) 0.0175(6) 0.0139(5) -0.0011(5) 0.0001(4) 0.0010(5)
Zn3 0.0200(7) 0.0193(7) 0.0174(6) 0.0002(6) 0.0007(5) -0.0043(6)
Na1 0.041(3) 0.037(3) 0.066(4) 0.001(3) 0.025(3) 0.007(3)
Na2 0.040(3) 0.052(4) 0.074(4) 0.012(3) 0.006(3) -0.014(3)
S1 0.0132(13) 0.0294(17) 0.0192(15) -0.0043(13) -0.0019(11) 0.0001(13)
S2 0.0169(14) 0.0178(15) 0.0278(16) 0.0021(13) 0.0019(12) -0.0018(12)
S3 0.0174(14) 0.0137(14) 0.0268(14) -0.0029(12) 0.0049(12) -0.0010(12)
S4 0.0156(14) 0.0217(16) 0.0206(14) -0.0067(12) 0.0043(11) -0.0051(12)
S5 0.0255(16) 0.0180(16) 0.0199(14) -0.0024(12) -0.0037(12) 0.0055(12)
S6 0.0312(16) 0.0228(17) 0.0170(14) 0.0018(12) 0.0040(12) -0.0051(14)
 
_geom_special_details
;
 All esds (except the esd in the dihedral angle between two l.s. planes)
 are estimated using the full covariance matrix.  The cell esds are taken
 into account individually in the estimation of esds in distances, angles
 and torsion angles; correlations between esds in cell parameters are only
 used when they are defined by crystal symmetry.  An approximate (isotropic)
 treatment of cell esds is used for estimating esds involving l.s. planes.
;
 
loop_
 _geom_bond_atom_site_label_1
 _geom_bond_atom_site_label_2
 _geom_bond_distance
 _geom_bond_site_symmetry_2
 _geom_bond_publ_flag
Ge1 S3 2.161(4) . ?
Ge1 S2 2.184(4) . ?
Ge1 S6 2.238(4) 3 ?
Ge1 S4 2.265(3) 4 ?
Ge2 S1 2.167(3) . ?
Ge2 S5 2.174(4) . ?
Ge2 S6 2.246(4) . ?
Ge2 S4 2.246(4) . ?
Zn3 S2 2.342(4) . ?
Zn3 S5 2.346(4) 4 ?
Zn3 S1 2.354(4) . ?
Zn3 S3 2.357(4) 3_445 ?
Na1 S5 2.782(6) 1_655 ?
Na1 S1 2.828(7) . ?
Na1 S6 2.898(7) 3 ?
Na1 S3 2.931(7) 3_545 ?
Na1 S4 3.029(8) 4 ?
Na1 Na2 4.195(9) 3 ?
Na2 S5 2.773(7) 3_545 ?
Na2 S6 2.832(7) 1_655 ?
Na2 S2 2.926(8) 4_554 ?
Na2 S4 3.049(7) . ?
Na2 S2 3.178(8) 3_545 ?
Na2 S1 3.283(8) . ?
Na2 Na1 4.195(9) 3_445 ?
S2 Na2 2.925(8) 4_455 ?
S2 Na2 3.178(8) 3_455 ?
S3 Zn3 2.357(4) 3 ?
S3 Na1 2.931(7) 3_455 ?
S4 Ge1 2.265(3) 4_454 ?
S4 Na1 3.029(8) 4_454 ?
S5 Zn3 2.346(4) 4_454 ?
S5 Na2 2.773(7) 3_455 ?
S5 Na1 2.782(7) 1_455 ?
S6 Ge1 2.238(4) 3_445 ?
S6 Na2 2.832(7) 1_455 ?
S6 Na1 2.898(7) 3_445 ?
 
loop_
 _geom_angle_atom_site_label_1
 _geom_angle_atom_site_label_2
 _geom_angle_atom_site_label_3
 _geom_angle
 _geom_angle_site_symmetry_1
 _geom_angle_site_symmetry_3
 _geom_angle_publ_flag
S3 Ge1 S2 112.49(13) . . ?
S3 Ge1 S6 113.67(12) . 3 ?
S2 Ge1 S6 101.49(11) . 3 ?
S3 Ge1 S4 113.83(12) . 4 ?
S2 Ge1 S4 114.31(14) . 4 ?
S6 Ge1 S4 99.74(12) 3 4 ?
S1 Ge2 S5 115.87(13) . . ?
S1 Ge2 S6 108.35(13) . . ?
S5 Ge2 S6 112.16(15) . . ?
S1 Ge2 S4 106.89(13) . . ?
S5 Ge2 S4 113.11(12) . . ?
S6 Ge2 S4 99.02(13) . . ?
S2 Zn3 S5 110.12(11) . 4 ?
S2 Zn3 S1 118.76(12) . . ?
S5 Zn3 S1 107.05(14) 4 . ?
S2 Zn3 S3 100.68(12) . 3_445 ?
S5 Zn3 S3 104.38(13) 4 3_445 ?
S1 Zn3 S3 114.94(12) . 3_445 ?
S5 Na1 S1 128.7(2) 1_655 . ?
S5 Na1 S6 109.5(2) 1_655 3 ?
S1 Na1 S6 95.7(2) . 3 ?
S5 Na1 S3 89.87(19) 1_655 3_545 ?
S1 Na1 S3 96.2(2) . 3_545 ?
S6 Na1 S3 142.7(2) 3 3_545 ?
S5 Na1 S4 130.2(2) 1_655 4 ?
S1 Na1 S4 99.75(19) . 4 ?
S6 Na1 S4 70.98(16) 3 4 ?
S3 Na1 S4 72.19(18) 3_545 4 ?
S5 Na1 Na2 40.87(14) 1_655 3 ?
S1 Na1 Na2 163.2(2) . 3 ?
S6 Na1 Na2 80.18(19) 3 3 ?
S3 Na1 Na2 96.84(19) 3_545 3 ?
S4 Na1 Na2 94.3(2) 4 3 ?
S5 Na2 S6 112.9(2) 3_545 1_655 ?
S5 Na2 S2 110.0(2) 3_545 4_554 ?
S6 Na2 S2 81.29(18) 1_655 4_554 ?
S5 Na2 S4 88.48(18) 3_545 . ?
S6 Na2 S4 154.5(2) 1_655 . ?
S2 Na2 S4 78.27(18) 4_554 . ?
S5 Na2 S2 86.02(18) 3_545 3_545 ?
S6 Na2 S2 69.19(15) 1_655 3_545 ?
S2 Na2 S2 150.2(2) 4_554 3_545 ?
S4 Na2 S2 128.6(2) . 3_545 ?
S5 Na2 S1 118.1(2) 3_545 . ?
S6 Na2 S1 110.0(2) 1_655 . ?
S2 Na2 S1 118.8(2) 4_554 . ?
S4 Na2 S1 67.98(16) . . ?
S2 Na2 S1 70.13(18) 3_545 . ?
S5 Na2 Na1 41.03(14) 3_545 3_445 ?
S6 Na2 Na1 128.5(2) 1_655 3_445 ?
S2 Na2 Na1 141.5(2) 4_554 3_445 ?
S4 Na2 Na1 76.72(17) . 3_445 ?
S2 Na2 Na1 66.16(16) 3_545 3_445 ?
S1 Na2 Na1 77.38(18) . 3_445 ?
Ge2 S1 Zn3 98.84(14) . . ?
Ge2 S1 Na1 129.07(17) . . ?
Zn3 S1 Na1 102.15(17) . . ?
Ge2 S1 Na2 87.60(15) . . ?
Zn3 S1 Na2 163.91(17) . . ?
Na1 S1 Na2 84.71(19) . . ?
Ge1 S2 Zn3 107.86(13) . . ?
Ge1 S2 Na2 106.74(17) . 4_455 ?
Zn3 S2 Na2 105.74(16) . 4_455 ?
Ge1 S2 Na2 85.73(14) . 3_455 ?
Zn3 S2 Na2 106.52(16) . 3_455 ?
Na2 S2 Na2 139.56(18) 4_455 3_455 ?
Ge1 S3 Zn3 104.19(13) . 3 ?
Ge1 S3 Na1 106.10(17) . 3_455 ?
Zn3 S3 Na1 104.71(17) 3 3_455 ?
Ge2 S4 Ge1 103.78(13) . 4_454 ?
Ge2 S4 Na1 120.81(18) . 4_454 ?
Ge1 S4 Na1 88.48(15) 4_454 4_454 ?
Ge2 S4 Na2 92.23(18) . . ?
Ge1 S4 Na2 131.44(18) 4_454 . ?
Na1 S4 Na2 121.9(2) 4_454 . ?
Ge2 S5 Zn3 106.20(14) . 4_454 ?
Ge2 S5 Na2 121.56(19) . 3_455 ?
Zn3 S5 Na2 114.22(17) 4_454 3_455 ?
Ge2 S5 Na1 112.69(18) . 1_455 ?
Zn3 S5 Na1 102.38(18) 4_454 1_455 ?
Na2 S5 Na1 98.1(2) 3_455 1_455 ?
Ge1 S6 Ge2 107.78(14) 3_445 . ?
Ge1 S6 Na2 93.65(18) 3_445 1_455 ?
Ge2 S6 Na2 116.79(17) . 1_455 ?
Ge1 S6 Na1 92.37(16) 3_445 3_445 ?
Ge2 S6 Na1 116.96(19) . 3_445 ?
Na2 S6 Na1 120.8(2) 1_455 3_445 ?
 
_refine_diff_density_max    0.738
_refine_diff_density_min   -0.773
_refine_diff_density_rms    0.176

_shelxl_version_number 2014-3

_shelx_res_file
;
TITL 000 in Cc
CELL 0.71073   7.2838  12.3458  11.4466  90.000 100.627  90.000
ZERR    4.00   0.0086   0.0148   0.0136   0.000   0.013   0.000
LATT -7
SYMM X, -Y, 0.5+Z
SFAC Na S  Zn Ge
UNIT 8 24 4 8
L.S. 20
ACTA
BOND
FMAP 2
PLAN 5
FREE Na1  Na2
TEMP 23.000
WGHT    0.011800
FVAR       0.10133
MOLE 1
GE1   4    0.212734    0.523203    0.655756    11.00000    0.01497    0.01272 =
         0.01519    0.00017    0.00170   -0.00033
GE2   4   -0.115765    0.141094    0.406664    11.00000    0.01403    0.01745 =
         0.01389   -0.00109    0.00007    0.00096
ZN3   3    0.007786    0.255934    0.683414    11.00000    0.01997    0.01932 =
         0.01744    0.00016    0.00067   -0.00430
NA1   1    0.447770    0.300375    0.518915    11.00000    0.04123    0.03750 =
         0.06630    0.00139    0.02480    0.00660
NA2   1    0.341724   -0.009493    0.387448    11.00000    0.03957    0.05161 =
         0.07411    0.01236    0.00592   -0.01386
S1    2    0.137830    0.167167    0.535865    11.00000    0.01317    0.02940 =
         0.01919   -0.00431   -0.00191    0.00006
S2    2   -0.050984    0.442173    0.664359    11.00000    0.01685    0.01783 =
         0.02776    0.00213    0.00188   -0.00176
S3    2    0.211855    0.691765    0.706608    11.00000    0.01737    0.01372 =
         0.02676   -0.00286    0.00491   -0.00096
S4    2   -0.030115    0.068623    0.244848    11.00000    0.01563    0.02171 =
         0.02064   -0.00666    0.00430   -0.00512
S5    2   -0.297728    0.281019    0.366341    11.00000    0.02552    0.01803 =
         0.01989   -0.00243   -0.00365    0.00554
S6    2   -0.266107   -0.002141    0.465089    11.00000    0.03122    0.02280 =
         0.01695    0.00184    0.00405   -0.00507
HKLF 4

REM  000 in Cc
REM R1 =  0.0374 for    1694 Fo > 4sig(Fo)  and  0.0435 for all    1887 data
REM    100 parameters refined using      2 restraints

END

WGHT      0.0100      0.0000

REM Highest difference peak  0.738,  deepest hole -0.773,  1-sigma level  0.176
Q1    1  -0.1052 -0.0429  0.4648  11.00000  0.05    0.74
Q2    1   0.5146 -0.1429  0.3972  11.00000  0.05    0.69
Q3    1   0.1479  0.4622  0.6890  11.00000  0.05    0.69
Q4    1   0.0011  0.1285  0.3336  11.00000  0.05    0.65
Q5    1   0.0328  0.1229  0.2022  11.00000  0.05    0.63
;
_shelx_res_checksum   47935

_shelx_hkl_file
;
  -2   0   0   19.97    1.71
  -2   0   0   22.74    1.29
  -4   0   0  580.53   20.27
  -4   0   0  574.61   18.32
  -8   0   0   82.90    8.85
  -1  -1   0  306.24   10.63
   1  -1   0  308.46   10.86
  -1   1   0  323.40    9.96
   3  -1   0  116.01    5.66
  -3  -1   0  110.96    4.93
   3   1   0  112.62    5.14
  -3   1   0  112.92    5.51
   5  -1   0  189.88    9.09
  -5  -1   0  184.34    9.38
  -5   1   0  171.98    9.05
  -7  -1   0  115.26    8.35
  -7   1   0  117.08    8.43
  -9  -1   0   -0.10    2.10
  -9   1   0    0.29    1.90
   0  -2   0   -0.11    0.22
  -2  -2   0  202.64    8.91
   2  -2   0  242.82    9.36
   2   2   0  244.69    8.24
  -2   2   0  218.03    8.47
   4  -2   0   18.16    2.70
  -4  -2   0   16.99    2.66
  -4  -2   0   17.56    2.29
  -4   2   0   14.63    2.48
   4   2   0   20.88    2.38
  -6  -2   0   36.22    4.99
   6  -2   0   49.05    4.50
  -6   2   0   39.73    5.11
  -8  -2   0   64.32    7.65
  -8   2   0   68.27    7.87
   1  -3   0  324.41   11.97
  -1  -3   0  333.99   11.25
   3  -3   0  503.52   18.93
  -3  -3   0  518.75   18.40
  -3   3   0  493.45   17.34
   3   3   0  505.30   17.30
  -5  -3   0   13.97    2.36
   5  -3   0   15.29    2.86
  -5  -3   0   16.10    2.99
   5   3   0   18.43    2.41
  -5   3   0   17.42    3.06
   7  -3   0    8.59    2.62
  -7  -3   0    6.15    2.38
  -7   3   0    6.12    2.46
  -9  -3   0   10.45    3.83
  -9   3   0   10.46    3.51
   0  -4   0  339.78   12.10
  -2  -4   0  157.12    6.24
  -2  -4   0  160.22    8.24
   2  -4   0  173.20    7.74
  -2   4   0  162.73    6.93
   4  -4   0  442.93   17.95
  -4  -4   0  452.66   17.30
   4   4   0  449.52   15.93
  -4   4   0  438.92   16.65
   6  -4   0   57.73    6.31
  -6  -4   0   51.21    5.94
  -6   4   0   49.52    5.75
  -8  -4   0   43.95    6.38
   8  -4   0   47.45    6.33
  -8   4   0   39.52    6.08
  -1  -5   0   65.81    3.42
   1  -5   0   65.99    4.02
  -3  -5   0  128.33    7.67
   3  -5   0  124.92    7.22
  -3  -5   0  133.49    5.59
   5  -5   0  128.72    8.09
  -5  -5   0  126.02    7.65
  -5   5   0  126.45    7.76
  -7  -5   0    9.33    2.95
   7  -5   0   12.71    3.45
  -7   5   0    7.47    2.77
   0  -6   0   66.39    3.93
  -2  -6   0  410.97   14.87
   2  -6   0  395.25   16.35
  -2  -6   0  450.54   17.87
   4  -6   0  104.51    7.18
  -4  -6   0  114.74    7.49
  -4   6   0  119.92    6.99
   6  -6   0   89.91    7.28
  -6   6   0   96.89    7.25
   8  -6   0    4.40    2.85
  -8  -6   0    2.03    2.28
  -8   6   0    1.82    2.17
  -1  -7   0  134.81    6.28
   1  -7   0  128.64    6.91
  -3  -7   0    3.74    1.10
  -3  -7   0    1.47    1.36
   3  -7   0    3.54    1.64
  -5  -7   0  101.87    7.42
   5  -7   0  110.35    7.80
  -5   7   0  102.47    7.17
  -7  -7   0   47.87    6.33
   7  -7   0   59.84    7.47
  -7   7   0   62.17    7.33
   0  -8   0   57.18    4.14
  -2  -8   0   17.88    2.38
   2  -8   0    7.65    2.11
  -2  -8   0   14.36    3.42
  -4  -8   0   28.35    4.68
   4  -8   0   31.97    4.86
  -6  -8   0  103.81    7.82
   6  -8   0   97.17    8.00
  -6   8   0   86.13    7.25
   8  -8   0   45.18    7.27
  -1  -9   0   19.49    2.77
   1  -9   0   18.01    3.05
  -1  -9   0   17.24    3.89
  -3  -9   0    1.82    1.84
   3  -9   0    1.44    1.37
   5  -9   0    5.89    2.54
  -5  -9   0    5.83    2.44
   7  -9   0   17.74    4.39
   0 -10   0   36.80    4.47
   0 -10   0   41.97    6.38
   2 -10   0  187.65   10.44
  -2 -10   0  177.91    8.98
  -2 -10   0  210.01   12.56
  -4 -10   0   16.03    3.93
   4 -10   0   17.07    3.83
   6 -10   0    8.43    3.05
  -6 -10   0   16.09    4.07
  -1 -11   0    1.41    1.94
   1 -11   0    3.69    1.77
  -1 -11   0    0.93    1.28
   1 -11   0    0.39    1.80
  -3 -11   0  119.66    9.53
   3 -11   0  107.91    8.24
   5 -11   0   34.74    5.86
  -5 -11   0   62.26    7.82
   0 -12   0    5.09    2.22
   0 -12   0    5.53    2.84
  -2 -12   0   16.82    4.49
   2 -12   0   16.88    3.77
   2 -12   0   12.17    4.01
  -4 -12   0    9.88    3.56
   4 -12   0   20.89    4.63
   6 -12   0   19.06    4.85
  -6 -12   0   15.53    4.45
   1 -13   0    9.51    2.97
   1 -13   0    5.79    3.21
  -1 -13   0    7.56    3.47
   3 -13   0   35.98    5.88
  -3 -13   0   34.61    6.40
   5 -13   0    0.73    1.81
  -5 -13   0    0.84    2.58
   0 -14   0    7.30    3.64
   0 -14   0    6.83    2.80
  -2 -14   0   27.13    5.82
   2 -14   0   32.39    5.73
   4 -14   0   17.98    4.67
  -4 -14   0    9.90    4.10
   1 -15   0   20.55    5.30
   1 -15   0   16.85    4.44
  -1 -15   0   17.65    5.18
  -3 -15   0    1.83    2.89
   3 -15   0    8.49    3.40
  -8   0   1   -1.88    1.34
   6   0  -1    0.38    1.01
  -6   0   1   -0.37    0.99
   4   0  -1   -0.11    0.51
  -4   0   1    0.07    0.38
  -4   0   1    0.47    0.72
   2   0  -1   -0.93    0.34
  -2   0   1   -0.74    0.34
   2   0   1   -0.49    0.34
  -2   0  -1   -0.53    0.37
  -2   0  -1   -0.21    0.32
  -4   0  -1    0.18    0.43
   4   0   1   -0.27    0.59
  -4   0  -1    0.31    0.72
  -6   0  -1   -0.22    1.09
  -8   0  -1   -0.05    1.65
  -9  -1   1   36.36    6.40
  -9   1   1   33.01    6.05
   7  -1  -1   41.45    5.21
  -7  -1   1   50.18    6.10
  -7   1   1   59.25    6.79
  -5  -1   1   76.27    5.30
   5  -1  -1   67.49    4.94
   5   1  -1   70.28    4.67
  -5   1   1   69.53    5.10
   3  -1  -1  115.00    5.74
  -3  -1   1  104.56    5.28
  -3  -1   1  108.98    4.99
   3   1  -1  120.52    5.35
  -3   1   1   99.02    5.18
   1  -1  -1  276.90   10.32
  -1   1   1  305.55    9.19
  -1  -1  -1   54.39    2.63
   1  -1   1   51.62    2.43
  -1   1  -1   49.01    2.24
  -1   1  -1   51.42    2.49
  -3  -1  -1  193.76    7.57
  -3  -1  -1  195.21    8.42
  -3   1  -1  203.45    7.01
  -3   1  -1  194.60    8.24
   3   1   1  191.46    7.59
  -5  -1  -1   55.82    4.90
  -5   1  -1   69.44    5.19
  -7  -1  -1  102.83    8.07
  -7   1  -1  115.60    8.43
  -9  -1  -1    3.15    2.81
  -9   1  -1    0.76    2.29
  -8  -2   1   35.90    5.74
  -8   2   1   33.37    5.48
   6  -2  -1   24.87    3.81
  -6  -2   1   27.48    4.12
  -6   2   1   40.78    4.98
   6   2  -1   27.60    3.57
  -4  -2   1  109.66    5.43
  -4  -2   1  102.57    5.83
   4  -2  -1   95.29    5.99
  -4   2   1  103.55    5.80
   2  -2  -1  227.69    9.28
   0  -2  -1  149.42    5.64
   0  -2   1  156.11    5.73
   0  -2  -1  151.01    6.08
   2  -2   1  476.09   16.88
  -2  -2  -1  480.56   16.55
  -2   2  -1  470.37   15.24
   2   2   1  465.68   15.54
  -2   2  -1  497.99   15.86
  -4  -2  -1  100.93    5.38
   4  -2   1  110.63    6.00
  -4  -2  -1  100.53    6.09
  -4   2  -1  104.47    4.32
   4   2   1  102.00    4.92
  -4   2  -1   97.42    6.00
  -6  -2  -1   37.29    5.02
   6  -2   1   35.09    4.40
  -6   2  -1   40.30    5.18
  -8  -2  -1   28.25    5.15
  -8   2  -1   37.72    6.11
  -9  -3   1   11.92    3.63
  -9   3   1   10.11    3.56
  -7  -3   1   31.32    4.93
   7  -3  -1   31.59    4.84
  -7   3   1   37.40    5.33
  -5  -3   1  124.89    6.42
  -5  -3   1  112.38    6.87
   5  -3  -1  117.69    7.39
   5   3  -1  105.97    6.01
  -5   3   1  122.27    7.15
   3  -3  -1    6.43    1.59
  -3   3   1    5.09    1.28
   3   3  -1    6.57    1.23
   1  -3  -1  101.99    4.95
  -1  -3   1   99.93    4.24
  -1  -3  -1  327.43   11.20
   1  -3   1  359.13   12.30
  -1  -3  -1  328.93   12.86
   3  -3   1  173.06    8.08
  -3  -3  -1  167.34    7.96
   3   3   1  169.57    6.31
  -3   3  -1  160.63    6.35
  -3   3  -1  163.42    7.64
   5  -3   1   90.65    6.05
  -5  -3  -1  111.01    6.87
  -5  -3  -1   85.76    5.39
  -5   3  -1   84.16    6.07
   7  -3   1    6.94    2.34
  -7  -3  -1   11.68    3.21
  -7   3  -1   13.60    3.38
  -8  -4   1   18.79    4.34
   8  -4  -1   26.07    4.72
  -8   4   1   14.34    3.76
   6  -4  -1   27.96    4.43
  -6  -4   1   40.79    5.20
  -6   4   1   33.13    4.51
  -4  -4   1  156.53    8.29
   4  -4  -1  168.34    8.80
  -4   4   1  150.27    7.83
   4   4  -1  168.35    7.31
   2  -4  -1   38.55    3.25
   2  -4  -1   38.10    2.84
  -2   4   1   45.60    2.92
   0  -4  -1   51.36    3.94
   0  -4  -1   54.94    3.05
   0  -4   1   62.68    3.21
   2  -4   1    5.30    1.31
  -2  -4  -1    2.03    1.09
  -2  -4  -1    3.18    0.62
  -2   4  -1    2.64    0.95
  -4  -4  -1   29.54    3.75
   4  -4   1   18.37    3.07
  -4   4  -1   23.50    3.25
  -6  -4  -1   23.69    4.14
   6  -4   1   26.71    4.25
  -6   4  -1   24.49    4.19
  -8  -4  -1   23.96    4.99
  -8   4  -1   26.92    5.20
  -7  -5   1   75.68    7.90
   7  -5  -1   92.16    7.47
  -7   5   1   72.88    7.70
   5  -5  -1   37.41    4.90
  -5  -5   1   36.50    4.47
  -5   5   1   36.18    4.61
   3  -5  -1  131.59    5.93
   3  -5  -1  124.05    7.21
  -3   5   1  126.31    6.49
   3   5  -1  125.03    5.76
   1  -5  -1  268.12   10.73
   1  -5  -1  246.10   11.15
  -1  -5   1  260.83    9.96
   1  -5   1   63.38    3.88
  -1  -5  -1   65.10    3.28
  -1  -5  -1   68.11    5.12
  -3  -5  -1  345.77   14.12
   3  -5   1  298.13   13.20
  -3  -5  -1  303.21   11.00
  -5  -5  -1   14.77    2.97
   5  -5   1   18.98    3.48
  -5   5  -1   12.66    2.83
  -7  -5  -1   10.45    3.17
   7  -5   1   13.13    3.46
  -7   5  -1    9.68    3.02
   8  -6  -1   18.49    4.45
  -8  -6   1   21.54    4.62
  -8   6   1   10.34    3.36
   6  -6  -1  151.61    9.87
  -6   6   1  145.24    9.04
  -4  -6   1   10.33    2.70
   4  -6  -1   14.03    2.99
  -4  -6   1   14.58    2.07
   4   6  -1   17.84    2.29
  -4   6   1   13.06    2.62
   2  -6  -1  545.06   21.27
  -2  -6   1  586.11   19.96
   2  -6  -1  548.63   20.59
   0  -6  -1  168.28    7.48
   0  -6  -1  154.62    8.97
   0  -6   1  175.86    7.54
   2  -6   1   99.35    5.71
  -2  -6  -1   89.20    4.29
  -2  -6  -1   91.98    6.58
  -4  -6  -1   93.54    6.81
   4  -6   1   97.01    6.78
   6  -6   1  118.72    8.36
  -6  -6  -1  106.14    7.35
  -6   6  -1  114.90    8.04
   8  -6   1    3.28    2.69
  -8  -6  -1   -0.25    1.99
  -8   6  -1    2.34    2.16
  -7  -7   1    6.30    2.58
   7  -7  -1    8.62    3.33
  -7   7   1    9.36    3.02
  -5  -7   1  142.42    9.05
   5  -7  -1  146.13    9.39
  -5   7   1  149.93    8.78
  -3  -7   1   20.70    2.65
   3  -7  -1   21.21    3.13
   3  -7  -1   25.37    3.84
  -1  -7   1  162.46    7.33
   1  -7  -1  153.36    7.92
   1  -7  -1  159.32    9.14
  -1  -7  -1  125.11    6.07
   1  -7   1  130.07    6.80
  -1  -7  -1  130.60    8.47
   3  -7   1   51.54    4.65
  -3  -7  -1   51.45    6.10
   5  -7   1  200.84   11.35
  -5  -7  -1  197.28   11.02
  -5   7  -1  188.18   10.48
  -7  -7  -1   16.92    4.02
   7  -7   1   21.45    4.57
  -7   7  -1   12.48    3.61
   8  -8  -1    1.75    2.66
  -8  -8   1    1.48    2.43
  -8   8   1    0.71    2.05
  -6  -8   1    6.61    2.65
   6  -8  -1    8.43    3.13
  -6   8   1    8.04    2.61
  -4  -8   1  142.03    9.40
   4  -8  -1  138.27    8.93
   2  -8  -1    2.93    1.78
  -2  -8   1    5.60    1.46
   2  -8  -1    3.44    1.61
   0  -8   1  179.47    8.62
   0  -8  -1  182.21    8.68
   0  -8  -1  189.16   10.84
  -2  -8  -1   57.09    6.64
   2  -8   1   38.65    4.58
  -2  -8  -1   46.75    3.29
  -4  -8  -1    2.63    1.87
   4  -8   1    3.22    1.91
  -6  -8  -1   41.69    5.67
   6  -8   1   28.59    5.05
  -6   8  -1   29.51    4.85
   7  -9  -1    1.94    2.55
   5  -9  -1   52.29    6.63
  -5  -9   1   46.41    6.40
  -3  -9   1  212.03   12.41
   3  -9  -1  198.00   11.33
  -3  -9   1  212.81    9.73
   1  -9  -1  143.47    8.12
   1  -9  -1  166.28    9.90
  -1  -9   1  126.74    7.11
  -1  -9  -1   76.86    5.03
  -1  -9  -1   72.94    8.14
   1  -9   1   78.28    5.49
   3  -9   1   59.77    5.42
  -3  -9  -1   64.42    7.60
   5  -9   1   20.84    4.30
  -5  -9  -1   31.65    5.19
   7  -9   1   64.95    8.29
  -7   9  -1   49.18    6.88
  -6 -10   1   11.41    3.63
   6 -10  -1   16.93    4.16
  -4 -10   1   56.58    7.44
   4 -10  -1   57.26    6.80
   2 -10  -1    0.12    1.78
   2 -10  -1    0.88    1.26
  -2 -10   1    3.17    1.41
   0 -10  -1   26.60    4.93
   0 -10  -1   27.20    3.78
   0 -10   1   33.21    4.15
   2 -10   1   70.11    5.75
  -2 -10  -1   59.00    7.41
  -4 -10  -1   34.98    5.72
   4 -10   1   39.35    5.72
  -6 -10  -1   14.51    3.70
   6 -10   1   11.02    3.49
   5 -11  -1   66.17    8.03
  -5 -11   1   73.95    8.54
  -3 -11   1   38.20    6.36
   3 -11  -1   30.41    5.05
  -1 -11   1  159.98    8.91
   1 -11  -1  160.98    9.56
   1 -11  -1  156.22   10.76
  -1 -11  -1   76.44    8.67
   1 -11   1   63.50    5.60
  -1 -11  -1   77.21    5.69
   3 -11   1   20.92    4.08
  -3 -11  -1   18.75    4.41
  -5 -11  -1   28.44    5.55
   5 -11   1   23.15    5.00
  -6 -12   1   18.06    4.77
   6 -12  -1   22.64    5.28
  -4 -12   1   54.49    7.79
   4 -12  -1   50.33    7.05
   2 -12  -1   60.06    7.08
   2 -12  -1   69.42    8.10
  -2 -12   1   54.64    7.96
   0 -12   1  179.33   10.34
   0 -12  -1  187.51   10.60
   0 -12  -1  184.46   12.41
  -2 -12  -1   32.69    6.03
   2 -12   1   31.58    5.05
   4 -12   1  124.83    9.68
  -4 -12  -1  127.87   10.32
  -5 -13   1    1.58    2.44
   5 -13  -1    2.91    2.24
  -3 -13   1   22.75    5.33
   3 -13  -1   41.53    6.42
   1 -13  -1   38.17    6.51
  -1 -13   1   48.32    5.78
   1 -13  -1   40.72    5.94
  -1 -13   1   36.04    6.74
  -1 -13  -1   44.85    7.20
   1 -13   1   49.43    7.56
   1 -13   1   55.96    6.74
  -3 -13  -1   76.67    9.49
   3 -13   1   90.82    8.04
  -5 -13  -1   12.67    4.31
   5 -13   1    9.50    3.58
   4 -14  -1    5.89    2.95
  -4 -14   1   13.67    4.27
   2 -14  -1   11.60    3.73
  -2 -14   1    6.54    3.55
   0 -14   1   16.94    3.89
   0 -14  -1   18.47    4.82
   0 -14   1   16.81    5.10
   2 -14   1   -0.91    1.70
  -2 -14  -1   -0.20    2.11
   4 -14   1    9.15    3.60
  -4 -14  -1   13.98    4.38
  -3 -15   1    2.07    3.06
   3 -15  -1    2.50    2.96
   1 -15  -1    1.12    2.82
  -1 -15   1    0.30    2.60
   1 -15  -1    0.99    2.34
   1 -15   1   81.72   10.48
  -1 -15  -1   60.85    9.04
   1 -15   1   54.33    7.53
  -8   0   2   69.42    7.77
  -6   0   2  113.57    7.21
   6   0  -2  111.97    7.03
  -4   0   2  705.27   21.31
   4   0  -2  654.84   24.23
  -4   0   2  660.77   22.47
  -2   0   2  157.27    5.49
   2   0  -2  138.55    5.11
   2   0  -2  126.87    5.99
   0   0  -2  127.48    4.86
   0   0  -2  125.51    4.68
   2   0   2  454.38   16.05
  -2   0  -2  499.42   15.80
  -2   0  -2  481.85   15.95
  -4   0  -2  471.90   17.54
   4   0   2  444.22   16.82
  -4   0  -2  477.56   16.07
  -6   0  -2   10.30    2.91
  -8   0  -2   40.36    6.44
  -9  -1   2   29.69    5.57
  -9   1   2   47.81    6.95
  -7  -1   2   23.25    4.06
   7  -1  -2   21.40    3.77
  -7   1   2   31.15    4.77
   7   1  -2   27.05    4.10
  -5  -1   2    9.12    2.12
   5  -1  -2    6.59    1.80
   5   1  -2    9.31    2.05
  -5   1   2    6.44    1.80
  -3  -1   2   77.10    4.25
   3  -1  -2   90.01    4.99
   3   1  -2   90.48    4.76
  -3   1   2   81.11    4.36
   1  -1  -2  116.68    4.43
   1  -1  -2  117.13    5.06
   1   1  -2  121.41    4.81
  -1   1   2  127.06    4.23
   1   1  -2  121.69    4.96
  -1   1  -2  148.45    5.54
  -1   1  -2  148.14    5.74
   3  -1   2  357.66   13.04
  -3  -1  -2  338.28   13.03
  -3  -1  -2  338.26   12.33
  -3   1  -2  339.73   11.92
  -3   1  -2  331.12   12.77
   3   1   2  349.80   12.18
  -5  -1  -2   17.28    2.39
  -5  -1  -2   13.19    2.90
   5  -1   2    6.65    1.78
  -5   1  -2   14.18    2.81
  -7  -1  -2   84.37    8.61
  -7   1  -2   85.52    8.67
  -8  -2   2   53.90    6.83
  -8   2   2   43.31    6.24
   6  -2  -2  166.97    9.33
  -6  -2   2  140.96    8.62
   6   2  -2  167.49    8.67
  -6   2   2  158.35    8.85
  -4  -2   2   63.24    4.23
   4  -2  -2   65.07    4.69
  -4   2   2   61.85    4.23
   4   2  -2   64.26    4.23
   2  -2  -2  245.31   10.17
   2  -2  -2  256.25    8.12
   2   2  -2  255.96    9.56
  -2   2   2  233.50    8.73
   0  -2  -2   16.76    1.79
   0  -2   2   11.35    1.32
   0  -2  -2   12.92    1.08
   0   2  -2   14.13    1.62
  -2  -2  -2  122.17    5.80
  -2   2  -2  126.56    5.22
  -2   2  -2  119.99    5.56
   4  -2   2  314.52   12.96
  -4  -2  -2  301.36   13.08
  -4  -2  -2  310.43   12.27
  -4   2  -2  311.72   11.26
  -4   2  -2  319.35   13.10
   4   2   2  331.83   11.51
  -6  -2  -2   12.38    3.07
  -6   2  -2   11.17    2.89
  -8  -2  -2   51.83    7.23
  -8   2  -2   47.97    6.88
  -9  -3   2   18.00    4.46
  -9   3   2   17.96    4.43
   7  -3  -2    7.63    2.61
  -7  -3   2   11.05    3.08
  -7   3   2   11.64    3.12
   5  -3  -2   87.02    6.29
  -5  -3   2   95.59    6.02
  -5  -3   2   95.34    5.62
   5   3  -2   85.70    5.41
  -5   3   2  101.60    6.19
   3  -3  -2   84.26    3.07
   3  -3  -2   93.07    5.59
   3   3  -2   84.56    4.57
  -3   3   2   74.19    4.44
  -1  -3   2  498.19   16.96
   1  -3  -2  484.10   17.61
   1   3  -2  501.65   16.92
  -1  -3  -2    6.07    1.50
   1  -3   2    4.13    0.99
  -1   3  -2    1.99    0.72
  -1   3  -2    4.24    1.05
   3  -3   2   50.28    3.71
  -3  -3  -2   46.21    3.78
  -3   3  -2   55.12    3.91
  -3   3  -2   50.75    3.03
   3   3   2   49.60    2.18
  -5  -3  -2   61.10    5.22
   5  -3   2   37.52    4.46
  -5  -3  -2   61.01    4.43
  -5   3  -2   52.64    5.54
  -7  -3  -2   55.31    6.76
  -7   3  -2   46.44    6.24
  -8  -4   2   35.46    5.59
  -8   4   2   38.21    5.71
   6  -4  -2   28.71    4.54
  -6  -4   2   30.88    4.43
  -6   4   2   40.77    4.97
   4  -4  -2   24.25    3.68
   4   4  -2   18.89    2.54
  -4   4   2   17.05    2.66
   2  -4  -2  167.05    6.66
   2  -4  -2  154.91    7.78
   2   4  -2  160.34    6.86
   0  -4   2  367.31   12.94
   0  -4  -2  338.72   12.89
   0  -4  -2  349.24   13.71
  -2  -4  -2   27.22    3.56
   2  -4   2   26.17    2.40
  -2   4  -2   22.97    2.59
   4  -4   2   35.45    4.21
  -4  -4  -2   32.85    4.12
  -4   4  -2   31.98    3.91
  -6  -4  -2  145.54    9.27
   6  -4   2  137.14    8.59
  -6   4  -2  142.83    9.07
  -8  -4  -2   15.55    4.10
  -8   4  -2   10.20    3.50
   7  -5  -2   46.64    6.25
  -7  -5   2   46.42    5.94
  -7   5   2   44.80    5.93
  -5  -5   2   33.14    4.44
   5  -5  -2   33.42    4.79
   5   5  -2   32.38    3.67
  -5   5   2   35.51    4.51
   3  -5  -2   36.17    4.29
   3  -5  -2   38.32    2.57
   3   5  -2   38.36    2.92
   1  -5  -2   55.40    3.91
   1  -5  -2   53.36    3.99
  -1  -5   2   50.64    3.31
   1  -5   2  373.22   13.91
  -1  -5  -2  367.17   13.10
  -1  -5  -2  356.38   15.22
  -3  -5  -2   12.46    2.66
   3  -5   2    7.79    1.89
  -3   5  -2   12.71    2.34
   5  -5   2  184.51   10.19
  -5  -5  -2  182.19    9.78
  -5   5  -2  183.02    9.84
   7  -5   2   14.07    3.42
  -7  -5  -2   24.34    4.76
  -7   5  -2   19.16    4.12
  -8  -6   2   21.80    4.54
   8  -6  -2   26.46    5.22
  -8   6   2   29.41    5.24
   6  -6  -2   13.53    3.51
  -6   6   2   20.46    3.80
   4  -6  -2    9.76    2.60
  -4   6   2   10.29    2.32
  -2  -6   2  502.02   18.16
   2  -6  -2  504.43   18.23
   2  -6  -2  476.59   19.32
   0  -6  -2  231.65   11.56
   0  -6  -2  260.44   10.42
   0  -6   2  246.76   10.19
   2  -6   2  175.85    8.57
  -2  -6  -2  182.50    7.07
  -2  -6  -2  173.41    9.92
   4  -6   2   40.50    4.96
  -4  -6  -2   53.56    5.95
  -4   6  -2   52.54    5.35
  -6  -6  -2   28.80    4.45
   6  -6   2   25.46    4.42
  -6   6  -2   35.21    5.18
  -8  -6  -2   35.77    6.04
  -8   6  -2   49.13    7.00
  -7  -7   2   11.50    3.10
   7  -7  -2   11.00    3.58
  -7   7   2   10.98    3.26
   5  -7  -2  110.37    7.88
  -5  -7   2   87.65    7.14
  -5   7   2   79.82    6.15
   3  -7  -2    8.01    1.88
   3  -7  -2   10.21    2.50
  -3  -7   2    9.43    1.92
   1  -7  -2   40.47    3.74
   1  -7  -2   35.71    4.67
  -1  -7   2   55.60    3.74
  -1  -7  -2   21.76    2.55
   1  -7   2   14.98    2.42
  -1  -7  -2   22.09    3.98
   3  -7   2   41.74    4.87
  -3  -7  -2   51.65    6.19
   5  -7   2   20.50    3.93
  -5  -7  -2   19.77    3.77
  -5   7  -2   19.00    3.58
  -7  -7  -2   50.36    6.73
   7  -7   2   36.49    5.85
  -7   7  -2   36.05    5.62
   8  -8  -2   15.78    4.60
  -8  -8   2   15.69    4.21
  -8   8   2   10.87    3.50
   6  -8  -2   13.31    3.61
  -6  -8   2    7.03    2.72
   4  -8  -2  148.62    9.26
  -4  -8   2  136.28    7.45
  -2  -8   2   43.52    3.55
   2  -8  -2   44.67    5.11
   2  -8  -2   32.88    4.44
   0  -8   2   34.40    3.22
   0  -8  -2   35.52    3.38
   0  -8  -2   29.51    4.82
  -2  -8  -2  146.54    9.70
   2  -8   2  150.92    8.39
   4  -8   2   15.48    3.29
  -4  -8  -2   14.69    3.63
   6  -8   2   30.89    5.25
  -6  -8  -2   31.95    4.98
  -6   8  -2   23.05    4.34
   7  -9  -2    1.06    2.40
   5  -9  -2    8.47    3.01
  -5  -9   2   16.20    4.04
  -3  -9   2   11.95    2.38
   3  -9  -2   15.77    3.37
  -1  -9   2   42.60    3.84
   1  -9  -2   50.46    4.64
   1  -9  -2   46.88    5.91
  -1  -9  -2   46.88    3.95
  -1  -9  -2   63.63    7.55
   1  -9   2   44.70    4.12
  -3  -9  -2   52.77    6.87
   3  -9   2   42.41    5.37
  -5  -9  -2   18.67    4.07
   5  -9   2   23.56    4.59
   7  -9   2    4.04    2.75
  -7   9  -2   -0.50    2.02
   6 -10  -2   25.39    5.20
  -6 -10   2   17.96    4.32
   4 -10  -2   76.71    6.86
  -4 -10   2   65.50    8.18
  -2 -10   2   16.08    2.87
   2 -10  -2   10.59    2.99
   2 -10  -2    8.33    2.60
   0 -10  -2   23.52    3.66
   0 -10   2   12.43    2.62
   0 -10  -2   21.79    4.58
  -2 -10  -2   97.85    8.27
   2 -10   2   86.75    6.62
  -4 -10  -2   78.83    8.73
   4 -10   2   89.28    7.39
  -6 -10  -2   31.96    5.71
   6 -10   2   24.69    5.15
  -5 -11   2    7.72    3.41
   5 -11  -2    4.99    2.62
   3 -11  -2   74.24    6.78
  -3 -11   2   79.98    5.86
  -1 -11   2   47.12    4.51
   1 -11  -2   51.84    6.91
   1 -11  -2   46.27    5.68
  -1 -11  -2   80.76    9.18
   1 -11   2   94.35    6.75
  -3 -11  -2   11.18    3.70
   3 -11   2   18.69    3.87
   5 -11   2    4.46    2.73
  -5 -11  -2    1.28    2.28
  -6 -12   2    2.01    2.63
   6 -12  -2    0.86    2.04
   4 -12  -2    1.78    1.99
  -4 -12   2    5.53    2.92
   2 -12  -2   29.34    5.25
  -2 -12   2   32.03    4.39
   2 -12  -2   38.34    5.67
   0 -12  -2   12.53    3.24
   0 -12  -2    9.74    3.73
   0 -12   2   10.50    2.83
   2 -12   2   90.40    7.23
  -2 -12  -2   68.92    8.88
   4 -12   2    2.52    2.30
  -4 -12  -2    3.40    2.61
  -5 -13   2   10.31    4.28
   5 -13  -2   11.25    3.80
   3 -13  -2   38.54    6.15
  -3 -13   2   25.14    5.64
   1 -13  -2    8.38    3.33
   1 -13  -2    6.52    2.74
  -1 -13   2    9.40    2.71
  -1 -13  -2   50.20    7.69
   1 -13   2   48.24    6.33
  -3 -13  -2    3.22    2.69
   3 -13   2    4.04    2.57
   4 -14  -2   12.77    4.04
  -4 -14   2   23.91    5.76
  -2 -14   2    6.45    3.27
   2 -14  -2    2.88    2.50
   0 -14  -2  127.98   10.81
   0 -14   2  128.80    9.47
  -2 -14  -2    7.27    3.59
   2 -14   2    6.69    2.95
   3 -15  -2    2.33    2.45
  -3 -15   2   -1.19    2.45
  -1 -15   2    4.15    2.86
   1 -15  -2    4.43    3.28
  -1 -15   2    8.16    4.17
   1 -15   2   40.24    6.36
   1 -15   2   43.19    7.83
  -1 -15  -2   35.66    7.16
   8   0  -3   -0.28    1.58
  -8   0   3   -0.72    1.56
  -6   0   3    1.02    1.08
   6   0  -3   -0.09    1.05
   4   0  -3    0.16    0.66
  -4   0   3    0.56    0.69
   2   0  -3   -0.14    0.44
  -2   0   3   -0.02    0.29
   2   0  -3    0.61    0.50
   0   0  -3    0.16    0.31
   0   0  -3   -0.80    0.23
  -2   0  -3   -0.18    0.40
  -2   0  -3   -0.54    0.52
   2   0   3    0.00    0.40
   4   0   3    0.07    0.74
  -4   0  -3   -0.14    0.80
  -4   0  -3   -0.29    0.56
  -6   0  -3    0.55    1.23
  -8   0  -3    2.15    2.19
  -9  -1   3    2.55    2.44
  -9   1   3    0.00    1.90
   7  -1  -3   87.72    6.89
  -7  -1   3   95.21    6.97
   7   1  -3   92.60    6.87
  -7   1   3   97.71    7.11
   5  -1  -3   69.77    5.20
  -5  -1   3   54.02    4.36
  -5   1   3   63.21    4.60
   5   1  -3   66.31    4.90
   3  -1  -3  170.37    6.32
   3  -1  -3  171.69    8.23
  -3  -1   3  187.78    7.17
  -3   1   3  184.97    7.24
   3   1  -3  179.63    8.13
   1  -1  -3  361.51   11.78
   1  -1  -3  338.19   12.50
   1   1  -3  341.98   12.43
   1   1  -3  346.92   12.08
  -3  -1  -3  336.64   12.63
   3  -1   3  341.47   12.66
  -3  -1  -3  333.33   13.10
  -3   1  -3  344.06   12.32
  -3   1  -3  320.83   12.75
   5  -1   3   36.97    3.42
  -5  -1  -3   35.13    4.76
  -5  -1  -3   43.83    3.56
  -5   1  -3   43.79    5.10
  -7  -1  -3    8.35    3.05
  -7   1  -3   11.08    3.46
  -8  -2   3   20.42    4.13
  -8   2   3   18.65    4.08
  -6  -2   3  130.91    7.77
   6  -2  -3  135.22    8.32
   6   2  -3  114.73    7.36
  -6   2   3  129.40    7.77
  -4  -2   3   41.26    3.27
   4  -2  -3   44.86    3.91
  -4   2   3   44.65    3.47
   4   2  -3   40.60    3.45
   2  -2  -3  244.96   10.18
   2  -2  -3  235.94    8.45
  -2   2   3  253.11    8.63
   2   2  -3  243.98    9.73
   0  -2   3   24.90    1.80
   0  -2  -3   19.75    1.44
   0  -2  -3   18.84    1.77
   0   2  -3   19.98    1.83
  -2  -2  -3   52.52    3.44
   2  -2   3   40.92    2.82
  -2   2  -3   51.16    3.11
  -2   2  -3   45.84    3.15
  -4  -2  -3   59.65    4.77
  -4  -2  -3   52.90    3.99
  -4   2  -3   53.81    4.48
  -4   2  -3   56.38    3.62
  -6  -2  -3   99.49    7.57
  -6   2  -3   95.68    7.40
  -8  -2  -3    7.04    3.16
  -8   2  -3    5.56    2.79
   9  -3  -3   24.89    4.90
  -9  -3   3   19.60    4.51
  -9   3   3   18.28    4.59
   7  -3  -3   -0.04    1.38
  -7  -3   3    1.30    1.60
   7   3  -3    1.36    1.52
  -7   3   3    1.53    1.55
  -5  -3   3    3.21    1.44
   5  -3  -3    3.95    1.69
  -5   3   3    2.15    1.28
   5   3  -3    1.19    1.11
   3  -3  -3  205.68    7.37
   3  -3  -3  218.12   10.12
  -3   3   3  215.69    8.65
   3   3  -3  221.58    9.31
   1  -3  -3   16.71    1.92
   1  -3  -3   15.85    2.08
   1   3  -3   11.01    1.52
   1  -3   3   82.56    4.26
  -1  -3  -3   84.64    4.81
  -1   3  -3   87.85    4.48
  -1   3  -3   78.75    3.84
  -3  -3  -3  178.67    8.55
   3  -3   3  182.42    8.29
  -3   3  -3  179.69    7.73
  -3   3  -3  179.45    8.35
  -5  -3  -3  140.34    7.50
   5  -3   3  129.70    7.52
  -5  -3  -3  124.99    8.12
  -5   3  -3  132.92    8.04
  -7  -3  -3   63.92    7.52
  -7   3  -3   59.34    7.25
   8  -4  -3   31.98    5.38
  -8  -4   3   20.88    4.36
  -8   4   3   29.22    5.01
  -6  -4   3    8.82    2.39
   6  -4  -3    5.72    2.22
  -6   4   3    5.86    2.14
   6   4  -3    6.48    2.06
   4  -4  -3   37.92    4.63
   4   4  -3   35.70    3.25
   2  -4  -3  136.56    7.41
   2  -4  -3  145.24    6.08
   2   4  -3  144.67    6.60
   0  -4  -3   86.82    5.05
   0  -4   3   71.01    4.21
   0  -4  -3   90.74    4.43
   2  -4   3  238.60   10.33
  -2  -4  -3  258.14   11.41
  -2   4  -3  264.22   10.25
  -2   4  -3  252.81    9.95
   4  -4   3   13.32    2.62
  -4  -4  -3    8.16    2.14
  -4   4  -3   10.85    1.93
  -4   4  -3    9.47    2.31
   6  -4   3   40.06    5.07
  -6  -4  -3   46.51    6.07
  -6   4  -3   37.06    5.36
  -8  -4  -3    0.28    1.93
  -8   4  -3    1.47    2.29
  -7  -5   3   16.66    3.64
   7  -5  -3   11.96    3.44
  -7   5   3   14.75    3.48
   5  -5  -3  102.24    7.40
  -5   5   3   96.14    6.46
   5   5  -3  103.68    6.24
   3  -5  -3  387.95   13.16
   3  -5  -3  372.48   16.13
   3   5  -3  374.78   14.66
   1  -5  -3  337.21   13.81
  -1  -5   3  336.03   13.17
   1  -5  -3  356.66   13.53
  -1  -5  -3   98.40    4.76
   1  -5   3  109.31    5.58
  -1  -5  -3  107.80    6.64
  -3  -5  -3   60.19    5.08
   3  -5   3   62.90    4.60
  -3   5  -3   55.56    4.29
  -3   5  -3   61.17    4.16
  -5  -5  -3    1.84    1.57
   5  -5   3    1.54    1.50
  -5   5  -3    1.91    1.52
  -7  -5  -3   70.55    8.02
  -7   5  -3   64.95    7.46
   8  -6  -3    1.14    2.29
  -8  -6   3    2.08    2.31
  -8   6   3    0.62    1.89
   6  -6  -3   57.40    6.87
  -6   6   3   44.03    5.53
   4  -6  -3   80.17    6.30
   4   6  -3   76.66    5.03
   2  -6  -3   22.99    3.02
   2  -6  -3   25.12    3.57
  -2  -6   3   29.52    3.27
   0  -6   3  108.50    5.93
   0  -6  -3  119.44    6.20
   0  -6  -3  115.91    7.20
  -2  -6  -3  188.70   10.38
   2  -6   3  194.32    9.20
  -4  -6  -3    1.52    1.50
   4  -6   3    0.10    1.13
  -4   6  -3    2.02    1.32
   6  -6   3   16.20    3.57
  -6  -6  -3   12.90    3.28
  -6  -6  -3   19.92    3.79
  -6   6  -3   20.61    4.10
   7  -7  -3    0.25    1.77
  -7  -7   3   -0.08    1.70
  -7   7   3    0.90    1.83
   5  -7  -3   85.63    7.29
  -3  -7   3    8.43    1.96
   3  -7  -3    6.08    2.11
   3  -7  -3    6.94    1.79
  -1  -7   3  116.94    6.45
   1  -7  -3  123.98    7.57
   1  -7  -3  129.43    7.27
  -1  -7  -3  202.31   11.32
  -1  -7  -3  203.06    9.20
   1  -7   3  216.10    9.71
  -3  -7  -3    8.82    2.62
   3  -7   3    3.40    1.61
   5  -7   3  101.89    7.65
  -5  -7  -3  100.34    7.53
  -5   7  -3   86.39    6.92
   7  -7   3    5.92    2.86
  -7  -7  -3   14.55    3.78
  -7   7  -3    6.52    3.01
   8  -8  -3   20.16    4.93
  -8  -8   3   25.61    5.05
  -8   8   3   18.03    4.21
   6  -8  -3   66.78    7.91
  -6  -8   3   72.14    8.15
  -4  -8   3   34.47    4.05
   4  -8  -3   25.19    4.47
   2  -8  -3  136.40    8.04
   2  -8  -3  148.06    8.59
  -2  -8   3  135.31    7.50
   0  -8  -3   85.55    6.97
   0  -8  -3   76.70    5.49
   0  -8   3   85.60    5.43
  -2  -8  -3   21.51    4.25
   2  -8   3   21.21    3.37
  -4  -8  -3   90.65    7.64
   4  -8   3  107.99    7.60
  -6  -8  -3   38.75    5.61
   6  -8   3   44.10    6.31
  -6   8  -3   42.40    5.87
   7  -9  -3   66.77    8.39
   5  -9  -3   12.30    3.49
  -5  -9   3   10.18    3.33
   3  -9  -3   58.49    5.56
  -3  -9   3   54.50    4.65
   1  -9  -3  195.91   10.31
  -1  -9   3  173.52    9.10
   1  -9  -3  184.42   10.84
   1  -9   3   52.10    4.50
  -1  -9  -3   36.38    5.79
  -3  -9  -3  157.33   10.66
   3  -9   3  161.89    9.58
   5  -9   3    9.51    3.21
  -5  -9  -3    7.41    2.86
   7  -9   3    7.89    3.34
  -7   9  -3    9.25    3.50
   6 -10  -3   28.19    5.43
  -6 -10   3   19.36    4.84
  -4 -10   3    1.42    1.42
   4 -10  -3   -0.04    1.51
   2 -10  -3   87.00    6.78
  -2 -10   3   66.43    5.35
   2 -10  -3   83.84    6.76
   0 -10  -3   26.76    5.07
   0 -10   3   32.61    4.20
   0 -10  -3   24.99    4.01
   2 -10   3   30.03    4.43
  -2 -10  -3   34.85    5.92
   4 -10   3   46.14    6.14
  -4 -10  -3   54.98    7.32
   6 -10   3    0.22    2.16
  -6 -10  -3    2.17    2.24
   5 -11  -3  133.29   10.21
  -5 -11   3  142.73   11.16
  -3 -11   3   30.32    4.33
   3 -11  -3   31.24    5.25
  -1 -11   3   79.73    6.01
   1 -11  -3   79.55    6.72
   1 -11  -3   71.53    8.23
  -1 -11  -3   72.00    8.93
   1 -11   3   76.73    6.23
   3 -11   3   43.52    5.90
  -3 -11  -3   39.35    6.56
   5 -11   3   36.41    6.14
  -5 -11  -3   36.30    6.23
   6 -12  -3    7.20    3.40
  -6 -12   3    8.63    4.09
  -4 -12   3  190.06   13.25
   4 -12  -3  192.75   12.50
  -2 -12   3    5.98    2.20
   2 -12  -3    9.81    3.07
   2 -12  -3    5.84    2.86
   0 -12  -3  100.43    9.21
   0 -12   3  133.42    8.50
  -2 -12  -3   62.16    8.54
   2 -12   3   77.45    6.77
  -4 -12  -3   63.53    8.44
   4 -12   3   62.63    7.73
   5 -13  -3   14.29    4.23
  -5 -13   3   11.66    4.41
   3 -13  -3   25.89    5.16
   1 -13  -3    9.82    3.31
  -1 -13   3    9.12    2.88
   1 -13  -3   10.65    3.77
  -1 -13  -3   31.51    6.22
   1 -13   3   23.40    4.49
   3 -13   3   65.02    7.78
  -3 -13  -3   60.65    8.47
  -4 -14   3   10.49    4.47
   4 -14  -3   10.58    4.00
   2 -14  -3   16.81    4.33
  -2 -14   3    9.85    3.14
   0 -14  -3   32.58    6.43
   0 -14   3   15.46    3.80
   2 -14   3    0.64    1.95
  -2 -14  -3    3.59    3.16
   1 -15  -3   27.18    5.98
  -1 -15   3   33.87    5.67
   1 -15   3   12.38    3.90
  -1 -15  -3   13.22    4.57
   8   0  -4   27.60    4.81
  -8   0   4   37.51    5.40
   6   0  -4  287.86   13.92
  -6   0   4  297.84   13.01
   4   0  -4  322.11   13.82
  -4   0   4  324.98   12.08
  -2   0   4  264.92    8.38
   2   0  -4  254.09   10.57
   0   0  -4 1000.00   31.13
   0   0  -4  921.48   27.84
   0   0  -4  935.32   30.39
  -2   0  -4   22.70    2.69
  -2   0  -4   23.99    2.73
   2   0   4   22.21    1.65
  -4   0  -4   58.49    4.15
  -4   0  -4   59.12    4.90
  -6   0  -4  251.40   13.25
  -8   0  -4    8.98    3.52
  -9  -1   4    6.29    2.85
   9  -1  -4    1.63    2.29
  -9   1   4    9.09    3.29
  -7  -1   4   40.64    5.19
   7  -1  -4   42.34    5.50
  -7   1   4   41.97    5.37
   7   1  -4   47.42    5.74
   5  -1  -4  214.01   10.71
  -5  -1   4  215.94    9.55
   5   1  -4  207.05   10.42
  -5   1   4  211.22    9.55
  -3  -1   4   30.15    2.24
   3  -1  -4   36.73    3.23
   3  -1  -4   37.06    2.35
  -3   1   4   36.68    2.44
   3   1  -4   34.26    2.59
   3   1  -4   34.59    3.06
   1  -1  -4  447.77   14.91
   1  -1  -4  437.52   15.59
   1   1  -4  426.07   15.04
   1   1  -4  424.66   15.49
  -1  -1  -4  100.06    5.10
   1   1   4  100.31    4.00
  -1   1  -4  105.27    4.46
  -1   1  -4   97.86    5.10
  -3  -1  -4   61.66    4.62
  -3  -1  -4   65.12    4.35
   3  -1   4   69.94    3.90
   3   1   4   67.87    3.34
  -3   1  -4   68.12    4.25
  -3   1  -4   68.78    4.60
  -5  -1  -4   71.62    6.08
  -5  -1  -4   76.08    5.25
  -5   1  -4   73.63    5.92
  -7  -1  -4   77.24    8.46
  -7   1  -4   69.40    8.00
  -8  -2   4   45.68    6.00
   8  -2  -4   47.44    6.39
  -8   2   4   49.50    6.35
   8   2  -4   44.21    5.73
   6  -2  -4   44.27    5.45
  -6  -2   4   56.47    4.77
  -6   2   4   43.49    5.03
   6   2  -4   55.12    4.84
  -4  -2   4   82.45    4.67
   4  -2  -4   80.98    5.70
   4   2  -4   80.45    5.31
  -4   2   4   86.08    4.82
   2  -2  -4  193.97    8.74
   2  -2  -4  193.09    7.49
   2   2  -4  201.84    8.26
   2   2  -4  192.42    8.43
   0  -2   4   31.44    2.21
   0  -2  -4   29.94    1.96
   0  -2  -4   29.94    2.43
   0   2  -4   29.19    1.54
   0   2  -4   28.41    2.43
   2  -2   4  188.11    7.58
  -2  -2  -4  176.51    8.15
  -2   2  -4  176.70    7.63
  -2   2  -4  172.10    7.82
  -4  -2  -4   48.91    4.03
  -4  -2  -4   52.86    5.57
   4  -2   4   47.94    3.75
  -4   2  -4   51.54    5.27
  -4   2  -4   50.56    3.81
  -6  -2  -4   21.71    4.25
  -6   2  -4   16.21    3.65
  -8  -2  -4   22.93    5.08
  -9  -3   4   47.89    6.77
  -9   3   4   47.02    6.70
   7  -3  -4   47.36    6.13
  -7  -3   4   45.99    5.55
   7   3  -4   42.46    5.26
  -7   3   4   52.65    5.91
  -5  -3   4  142.34    7.37
   5  -3  -4  139.08    8.54
  -5   3   4  135.25    7.39
   5   3  -4  135.03    7.67
   3  -3  -4  386.35   15.79
   3  -3  -4  382.47   12.85
   3   3  -4  387.27   15.00
  -3   3   4  369.60   13.31
   1  -3  -4   35.43    2.73
   1  -3  -4   30.08    2.48
   1   3  -4   37.03    2.94
   1   3  -4   35.34    2.62
   1  -3   4   63.63    3.99
  -1  -3  -4   80.69    3.09
  -1  -3  -4   72.00    4.63
  -1   3  -4   87.09    4.73
  -1   3  -4   84.70    3.94
  -3  -3  -4  192.06    9.12
   3  -3   4  190.21    8.64
  -3   3  -4  188.44    8.48
  -3   3  -4  181.01    8.67
  -5  -3  -4   18.69    3.24
  -5  -3  -4   24.90    4.18
  -5   3  -4   19.67    3.50
  -7  -3  -4   18.18    4.20
  -7   3  -4   23.32    4.65
  -8  -4   4   56.75    6.91
   8  -4  -4   56.13    7.28
  -8   4   4   76.43    8.08
  -6  -4   4   40.00    4.75
   6  -4  -4   46.42    5.91
  -6   4   4   38.09    4.95
   6   4  -4   49.92    4.53
   4  -4  -4  284.99   13.59
   4   4  -4  292.14   12.56
  -4   4   4  288.74   11.68
   2  -4  -4   91.24    5.79
   2  -4  -4   91.54    4.69
   2   4  -4  101.68    5.34
   0  -4  -4  182.74    8.29
   0  -4   4  171.42    7.83
   0  -4  -4  178.38    7.40
   0   4  -4  179.21    8.23
  -2  -4  -4  239.63   11.27
   2  -4   4  255.54   10.63
  -2   4  -4  265.57   10.73
  -2   4  -4  257.51   10.16
   4  -4   4  146.60    7.91
  -4  -4  -4  131.09    7.91
  -4   4  -4  142.40    7.96
  -4   4  -4  142.04    7.13
  -6  -4  -4   16.80    3.81
  -6   4  -4   17.98    3.87
  -8  -4  -4    3.20    2.48
  -8   4  -4    8.97    3.58
   7  -5  -4   19.58    4.25
  -7  -5   4   28.90    4.51
  -7   5   4   20.98    3.99
   5  -5  -4   30.61    4.80
  -5   5   4   36.21    4.31
   5   5  -4   24.47    3.55
   3  -5  -4  180.15    9.75
   3  -5  -4  182.44    7.38
   3   5  -4  175.04    8.54
   1  -5  -4  249.16   10.82
  -1  -5   4  274.88   11.03
   1  -5  -4  256.01   11.42
   1  -5   4   57.63    3.91
  -1  -5  -4   59.29    3.02
  -1  -5  -4   60.40    4.84
  -1   5  -4   56.10    4.19
   3  -5   4   63.77    4.59
  -3  -5  -4   44.38    5.26
  -3   5  -4   48.56    4.12
  -3   5  -4   51.29    4.01
  -5  -5  -4   53.54    5.91
   5  -5   4   61.42    5.44
  -5   5  -4   55.94    6.03
  -7  -5  -4    1.04    1.94
  -7   5  -4    1.17    1.90
   8  -6  -4    4.11    2.81
  -8  -6   4    7.33    2.89
  -8   6   4    5.84    2.78
  -6  -6   4  152.94    8.55
   6  -6  -4  150.23   10.14
   6   6  -4  133.22    8.21
  -6   6   4  152.78    9.02
   4  -6  -4   27.84    4.49
   4   6  -4   34.51    3.98
   2  -6  -4   82.36    6.09
  -2  -6   4   92.36    5.47
   0  -6  -4    8.96    1.89
   0  -6  -4    9.69    2.35
   0  -6   4    9.09    1.87
  -2  -6  -4  401.89   17.73
   2  -6   4  413.77   16.38
   4  -6   4   13.63    2.89
  -4  -6  -4    6.57    2.37
  -4   6  -4    8.60    2.41
  -6  -6  -4   65.15    7.21
  -6  -6  -4   56.12    6.35
   6  -6   4   58.60    6.77
  -6   6  -4   53.17    6.50
   7  -7  -4   33.74    5.79
  -7  -7   4   31.39    4.89
  -7   7   4   32.11    4.98
   5  -7  -4   45.05    6.24
   5   7  -4   60.33    4.85
   3  -7  -4   60.08    4.14
   3  -7  -4   58.55    5.42
  -3  -7   4   52.36    4.31
  -1  -7   4  238.56   10.79
   1  -7  -4  232.92   11.36
   1  -7  -4  235.86   11.40
  -1  -7  -4  195.28   11.00
   1  -7   4  193.65    9.41
   3  -7   4   94.01    6.47
  -3  -7  -4   79.96    7.03
  -3   7  -4   90.44    5.90
  -5  -7  -4   37.86    5.44
   5  -7   4   46.90    6.02
  -5   7  -4   46.01    5.75
  -7  -7  -4   -0.24    1.56
  -7   7  -4    0.31    1.89
   8  -8  -4   51.36    7.46
   6  -8  -4   36.47    5.92
  -4  -8   4   20.01    3.28
   4  -8  -4   22.22    4.39
   2  -8  -4   28.28    4.03
   2  -8  -4   34.25    4.75
  -2  -8   4   26.50    3.63
   0  -8   4  193.43    9.65
   0  -8  -4  215.60   10.27
   0  -8  -4  190.04   11.13
   2  -8   4    1.32    1.23
  -2  -8  -4    3.75    2.12
  -4  -8  -4   16.74    3.90
   4  -8   4    8.87    2.64
  -4   8  -4   12.37    2.88
  -6  -8  -4   19.79    4.09
   6  -8   4   20.08    4.45
  -6   8  -4   24.68    4.61
   7  -9  -4    4.11    2.62
  -5  -9   4    6.98    2.24
   5  -9  -4   11.53    3.45
   3  -9  -4   10.17    3.01
  -3  -9   4   11.43    2.59
  -1  -9   4   26.79    3.70
   1  -9  -4   17.78    3.45
   1  -9  -4   15.45    3.40
  -1  -9  -4   35.29    5.70
   1  -9   4   42.01    4.88
   3  -9   4    7.41    2.38
  -3  -9  -4    9.95    3.30
   5  -9   4   65.87    7.76
  -5  -9  -4   72.10    8.17
   6 -10  -4    5.88    3.17
  -6 -10   4    3.28    2.85
  -4 -10   4    3.02    1.79
   4 -10  -4    5.66    2.47
   2 -10  -4  238.64   12.31
   2 -10  -4  233.28   12.83
  -2 -10   4  232.42   11.76
   0 -10   4   53.33    4.85
   0 -10  -4   64.49    7.68
   2 -10   4   86.38    6.67
  -2 -10  -4   79.06    9.13
   4 -10   4   11.34    3.28
  -4 -10  -4    6.74    3.11
  -6 -10  -4   19.45    4.60
   6 -10   4   19.77    4.78
   5 -11  -4    7.86    3.36
  -3 -11   4   79.09    6.37
   3 -11  -4   78.76    7.24
   1 -11  -4   29.10    5.07
  -1 -11   4   22.73    3.84
   1 -11  -4   26.17    4.60
  -1 -11  -4    1.94    2.13
   1 -11   4    4.36    1.90
  -3 -11  -4   50.23    7.46
   3 -11   4   38.35    5.65
   5 -11   4   22.67    5.04
  -6 -12   4    6.87    3.73
   6 -12  -4    6.95    3.49
   4 -12  -4   15.14    4.15
   2 -12  -4   19.43    4.21
   2 -12  -4   20.81    4.54
  -2 -12   4   16.17    3.40
   0 -12  -4   15.47    4.15
   0 -12   4   23.23    4.00
  -2 -12  -4   11.09    4.00
   2 -12   4    4.35    2.27
  -4 -12  -4   59.25    8.36
   4 -12   4   69.92    8.24
   5 -13  -4    4.54    3.18
  -5 -13   4    5.54    3.20
  -3 -13   4   22.25    4.22
   3 -13  -4   16.58    4.25
   1 -13  -4    6.21    3.02
  -1 -13   4    0.11    1.61
   1 -13   4    0.77    1.74
  -1 -13  -4    0.81    2.37
  -3 -13  -4   24.49    5.79
   3 -13   4   25.86    4.99
   4 -14  -4   46.13    7.30
  -4 -14   4   38.59    7.30
  -2 -14   4   14.20    3.66
   0 -14   4    4.12    2.50
   0 -14  -4    0.43    2.51
   2 -14   4   11.64    3.52
  -2 -14  -4   13.19    4.52
  -1 -15   4    0.70    1.99
   1 -15  -4   -0.34    2.32
  -1 -15  -4   20.42    5.72
   1 -15   4   30.57    5.72
   8   0  -5   -0.92    1.72
  -8   0   5    0.55    1.71
  -6   0   5   -0.84    0.86
   6   0  -5    0.80    1.32
  -4   0   5   -0.06    0.58
   4   0  -5    0.01    0.68
   4   0  -5   -0.20    0.83
   2   0  -5    0.00    0.57
   2   0  -5   -0.01    0.60
   0   0  -5    0.01    0.48
   0   0  -5   -0.04    0.33
   0   0  -5    0.05    0.32
  -2   0  -5    0.00    0.64
   2   0   5    0.73    0.55
  -2   0  -5    0.32    0.66
  -4   0  -5   -0.05    1.12
  -4   0  -5   -0.07    0.89
  -6   0  -5    0.41    1.54
  -8   0  -5    0.94    2.55
   9  -1  -5    8.27    3.50
   7  -1  -5   15.58    3.63
  -7  -1   5   21.38    3.80
  -7   1   5   14.17    3.15
   7   1  -5   22.14    4.04
   5  -1  -5   61.29    5.17
  -5  -1   5   54.93    4.09
   5   1  -5   63.20    5.14
  -5   1   5   51.12    4.07
   3  -1  -5  458.65   16.04
  -3  -1   5  467.07   15.07
   3  -1  -5  459.04   18.32
   3   1  -5  464.60   18.15
  -3   1   5  499.35   15.36
   1  -1  -5  194.71    8.14
   1  -1  -5  199.52    8.26
   1   1  -5  189.18    8.16
   1   1  -5  186.33    8.21
  -1  -1  -5    8.60    1.79
  -1   1  -5    9.41    1.83
   1   1   5    8.95    1.17
  -1   1  -5   10.36    1.48
  -3  -1  -5   23.44    3.31
  -3  -1  -5   20.88    3.05
   3  -1   5   26.13    2.25
  -3   1  -5   19.46    2.86
  -3   1  -5   16.91    2.68
  -5  -1  -5  126.61    7.48
  -5  -1  -5  113.85    8.04
  -5   1  -5  126.88    8.17
  -7  -1  -5   20.39    4.50
  -7   1  -5   12.00    3.75
   8  -2  -5   12.66    3.59
   8   2  -5    8.57    2.86
  -8   2   5    6.49    2.64
  -6  -2   5   10.46    2.42
   6  -2  -5    6.92    2.36
   6   2  -5   12.01    2.82
  -6   2   5   11.08    2.44
  -4  -2   5   91.03    4.82
   4  -2  -5   89.18    6.12
   4   2  -5   96.24    5.98
  -4   2   5   86.26    4.89
   2  -2  -5  144.79    6.62
  -2  -2   5  156.20    5.25
   2  -2  -5  162.43    7.68
   2   2  -5  155.00    7.24
   2   2  -5  150.40    7.36
   0  -2  -5   59.79    3.27
   0  -2  -5   64.79    4.09
   0  -2   5   69.37    3.77
   0   2  -5   61.23    2.63
   0   2  -5   62.70    4.13
  -2  -2  -5  223.79   10.43
   2   2   5  252.74    8.43
  -2   2  -5  251.04   10.57
  -2   2  -5  248.01    9.83
   4  -2   5   17.21    2.63
  -4  -2  -5   23.43    3.84
  -4  -2  -5   14.96    2.79
  -4   2  -5   20.10    3.39
  -4   2  -5   29.27    3.68
  -6  -2  -5   41.09    5.95
  -6   2  -5   36.03    5.50
  -8  -2  -5   22.75    5.05
  -8   2  -5   24.38    5.38
   9  -3  -5   24.00    5.19
  -7  -3   5    4.54    2.13
   7  -3  -5    6.33    2.58
  -7   3   5    7.79    2.60
   7   3  -5    9.30    2.67
   5  -3  -5  103.16    7.30
  -5  -3   5  101.03    5.87
   5   3  -5  103.28    6.65
  -5   3   5   98.09    5.99
   3  -3  -5   27.19    2.23
   3  -3  -5   31.60    4.00
   3   3  -5   22.31    3.11
   1  -3  -5    2.02    0.94
   1  -3  -5    1.07    0.74
   1   3  -5    1.08    0.78
   1   3  -5    2.10    0.92
  -1  -3  -5  277.03    9.59
   1  -3   5  297.40   11.20
  -1  -3  -5  280.73   11.69
  -1   3  -5  254.21   11.32
  -1   3  -5  271.69    9.85
   3  -3   5   15.97    2.44
  -3  -3  -5   12.62    2.57
  -3   3  -5   11.47    2.30
  -3   3  -5   13.34    2.47
  -5  -3  -5   61.53    5.24
  -5  -3  -5   48.57    5.93
  -5   3  -5   51.07    5.84
  -7  -3  -5   79.08    8.86
  -7   3  -5   71.90    8.32
   8  -4  -5   35.07    5.73
  -8   4   5   28.19    4.91
  -6  -4   5   14.45    2.82
   6  -4  -5   13.87    3.33
   6   4  -5   13.90    3.05
  -6   4   5   15.77    3.05
   4  -4  -5   18.85    3.36
   4   4  -5   16.79    2.89
   2  -4  -5  101.13    6.02
   2  -4  -5   90.45    4.95
   2   4  -5   87.22    5.31
   0  -4  -5   32.26    3.60
   0  -4  -5   31.38    2.28
   0  -4   5   26.73    2.59
   0   4  -5   24.55    3.20
  -2  -4  -5   98.28    6.16
   2  -4   5   77.72    4.89
  -2   4  -5   85.30    5.39
  -2   4  -5   81.51    4.82
  -4  -4  -5   17.19    3.32
   4  -4   5   11.42    2.44
  -4   4  -5   19.09    3.05
  -4   4  -5   23.44    3.62
  -6  -4  -5    1.64    1.82
  -6   4  -5   -0.94    1.40
   7  -5  -5  117.25    9.03
   7   5  -5  120.95    8.12
  -7   5   5  107.68    7.91
  -5  -5   5   75.04    4.91
   5  -5  -5   62.62    5.97
   5   5  -5   66.79    5.33
   3  -5  -5    1.87    1.37
   3  -5  -5    2.66    1.02
   3   5  -5    2.51    1.19
   1  -5  -5  231.22    9.89
   1  -5  -5  224.10    9.98
  -1  -5   5  192.06    9.49
   1  -5   5  262.44   11.17
  -1  -5  -5  252.16   11.91
  -1   5  -5  258.91   11.47
   3  -5   5  177.52    9.38
  -3  -5  -5  200.17   10.65
  -3   5  -5  209.19    9.60
  -3   5  -5  201.22    9.64
  -5  -5  -5   38.02    5.18
   5  -5   5   44.44    5.31
  -5  -5  -5   46.79    5.73
  -5   5  -5   32.74    4.70
  -7  -5  -5   -0.85    1.80
  -7   5  -5    0.44    1.98
   8  -6  -5   40.81    6.51
  -8   6   5   41.55    6.21
   6  -6  -5  106.58    8.57
   6   6  -5  112.10    7.44
   4  -6  -5    4.20    2.02
   4   6  -5    5.18    1.84
   2  -6  -5  198.59   10.70
  -2  -6   5  223.08   10.03
   2  -6  -5  208.66    9.50
   0  -6  -5   92.72    5.42
   0  -6   5   98.43    5.87
   0  -6  -5  106.98    6.74
  -2  -6  -5   18.14    3.50
   2  -6   5   19.68    2.96
  -2   6  -5   23.77    3.52
   4  -6   5  108.71    7.32
  -4  -6  -5  108.19    7.88
  -4   6  -5  119.31    7.49
  -6  -6  -5   42.34    6.08
  -6  -6  -5   41.71    5.81
  -6   6  -5   39.36    5.72
   7  -7  -5    7.04    3.11
   5  -7  -5   70.13    6.79
   5   7  -5   87.69    6.25
   3  -7  -5   49.38    6.16
  -3  -7   5   67.72    4.89
   3  -7  -5   52.90    4.03
  -1  -7   5   50.24    4.28
   1  -7  -5   53.93    4.78
   1  -7  -5   58.35    4.91
   1  -7   5  148.49    7.98
  -1  -7  -5  147.22    9.33
   3  -7   5    6.26    2.04
  -3  -7  -5    9.55    3.00
  -3   7  -5    8.85    2.29
   5  -7   5   62.76    5.99
  -5  -7  -5   64.89    7.41
  -5   7  -5   56.44    6.54
  -7  -7  -5    4.36    2.76
  -7   7  -5    5.86    2.96
   6  -8  -5   23.59    4.84
  -6  -8   5   31.76    4.52
   6   8  -5   33.30    4.61
  -4  -8   5   36.25    4.60
   4  -8  -5   53.09    6.64
   2  -8  -5    6.58    2.54
  -2  -8   5    8.20    2.35
   2  -8  -5    6.33    2.04
   0  -8  -5    7.12    2.58
   0  -8   5    6.58    1.86
   2  -8   5   57.71    4.95
  -2  -8  -5   46.36    6.49
  -4  -8  -5   11.11    3.31
   4  -8   5   11.72    3.11
  -4   8  -5   11.86    2.88
  -6  -8  -5   51.92    6.85
   6  -8   5   55.49    7.34
  -6   8  -5   62.14    7.39
   7  -9  -5   23.52    5.30
   5  -9  -5   92.71    8.21
  -5  -9   5   96.74    7.07
   3  -9  -5   54.70    7.01
  -3  -9   5   62.21    5.31
  -1  -9   5   81.74    6.03
   1  -9  -5   81.04    6.61
   1  -9  -5   73.23    6.43
   1  -9   5   54.76    4.87
  -1  -9  -5   58.24    7.58
   3  -9   5  129.44    8.63
  -3  -9  -5  132.26   10.11
   5  -9   5   64.06    7.75
  -5  -9  -5   55.05    7.28
   6 -10  -5   32.73    6.01
   4 -10  -5   61.08    7.99
  -4 -10   5   65.69    5.90
   2 -10  -5   83.60    6.78
  -2 -10   5   84.22    6.38
   2 -10  -5   85.06    7.36
   0 -10   5   65.38    5.54
   0 -10  -5   73.03    8.21
   2 -10   5  104.39    7.55
  -2 -10  -5  104.10    9.16
  -4 -10  -5    9.79    3.58
   4 -10   5    8.84    3.13
   5 -11  -5   48.54    7.53
   3 -11  -5   52.22    7.28
  -3 -11   5   51.50    5.93
   1 -11  -5   64.55    7.71
  -1 -11   5   72.68    6.04
   1 -11   5   36.54    5.08
  -1 -11  -5   38.35    6.50
  -3 -11  -5    5.39    2.98
   3 -11   5   15.52    3.73
   5 -11   5   52.22    7.54
   4 -12  -5   -0.65    2.01
  -4 -12   5    2.33    2.09
   2 -12  -5   34.62    5.60
   2 -12  -5   26.54    5.28
  -2 -12   5   30.67    4.87
   0 -12   5   73.71    6.42
   0 -12  -5   70.92    8.82
  -2 -12  -5    7.49    3.46
   2 -12   5    2.87    2.04
  -4 -12  -5   25.93    5.80
   4 -12   5   38.32    6.19
   3 -13  -5   32.53    6.09
  -3 -13   5   36.57    5.58
   1 -13  -5  112.57    9.45
   1 -13   5    0.61    1.67
  -1 -13  -5    1.71    2.50
   3 -13   5   64.08    7.86
  -3 -13  -5   48.96    8.22
  -2 -14   5   14.05    3.59
   0 -14  -5    4.64    3.28
   0 -14   5    8.21    3.09
   2 -14   5    2.67    2.52
  -2 -14  -5    4.45    3.36
   8   0  -6   31.13    5.37
   6   0  -6   29.14    4.59
  -4   0   6  195.16    7.59
   4   0  -6  182.21    9.69
   4   0  -6  176.17    8.02
   2   0  -6   53.54    3.77
   2   0  -6   53.93    3.90
   0   0  -6  307.12   11.87
   0   0  -6  321.66   10.28
   0   0  -6  320.37   12.70
  -2   0  -6  287.03   12.47
   2   0   6  303.64   11.11
  -4   0  -6  330.31   14.33
  -4   0  -6  329.73   14.60
  -6   0  -6   32.74    5.23
   9  -1  -6    6.45    3.06
   9   1  -6    8.42    3.34
   7  -1  -6   24.36    4.64
   7   1  -6   22.90    4.31
   5  -1  -6   11.49    2.86
   5   1  -6    6.86    2.20
  -5   1   6   16.48    2.52
   3  -1  -6  275.91   12.44
  -3  -1   6  268.77    9.22
   3  -1  -6  286.27   10.90
   3   1  -6  288.50   11.32
   3   1  -6  274.64   12.23
   1  -1  -6   71.30    4.61
   1  -1  -6   75.68    4.39
   1   1  -6   71.30    4.37
   1   1  -6   89.20    5.07
  -1  -1  -6  306.43   12.60
  -1  -1  -6  319.00   11.21
  -1   1  -6  310.76   10.84
  -1   1  -6  288.69   12.52
   1   1   6  297.96   11.02
   3  -1   6  138.65    6.42
  -3  -1  -6  141.73    7.73
  -3  -1  -6  140.12    7.76
  -3   1  -6  138.48    7.32
  -3   1  -6  119.63    7.32
  -5  -1  -6   10.12    3.03
  -5  -1  -6   18.53    3.57
  -5   1  -6   16.83    3.52
  -7  -1  -6   11.70    3.58
  -7   1  -6    6.01    3.19
   8  -2  -6    2.00    2.13
   8   2  -6    2.06    2.05
   6  -2  -6  180.66   10.93
   6   2  -6  192.77   10.57
  -6   2   6  181.90    9.29
   4  -2  -6   42.20    4.96
  -4   2   6   39.28    3.02
   4   2  -6   47.77    4.21
   2  -2  -6  417.63   16.53
   2  -2  -6  426.20   15.39
   2   2  -6  422.81   15.88
   2   2  -6  410.64   16.34
   0  -2  -6  340.32   13.31
   0  -2  -6  332.69   12.16
   0  -2   6  304.12   12.49
   0   2  -6  332.63   13.32
   0   2  -6  334.71   10.36
  -2  -2  -6   58.59    4.66
  -2   2  -6   70.19    4.31
  -2   2  -6   61.08    4.63
  -4  -2  -6  273.03   12.59
  -4  -2  -6  253.04   12.51
  -4   2  -6  238.98   11.91
  -4   2  -6  265.98   12.07
  -6  -2  -6   10.16    3.24
  -6   2  -6    5.93    2.50
   9  -3  -6    0.93    2.58
   7  -3  -6  142.18    9.77
   7   3  -6  132.64    8.92
   5  -3  -6   44.37    5.61
  -5   3   6   38.65    4.10
   5   3  -6   32.38    4.45
   3  -3  -6   26.99    2.93
   3  -3  -6   25.83    3.66
   3   3  -6   27.74    3.68
   3   3  -6   26.06    3.48
   1  -3  -6  154.63    7.38
   1  -3  -6  150.93    7.51
   1   3  -6  158.16    7.94
   1   3  -6  158.78    7.46
   1  -3   6  296.37   12.44
  -1  -3  -6  312.39   13.23
  -1  -3  -6  318.27   11.04
  -1   3  -6  325.29   11.13
  -3  -3  -6   30.15    4.14
   3  -3   6   29.89    3.42
  -3   3  -6   29.43    3.73
  -3   3  -6   32.41    4.05
  -5  -3  -6  233.24   12.37
  -5  -3  -6  203.65   11.27
  -5   3  -6  205.16   11.35
  -7  -3  -6   44.02    6.66
  -7   3  -6   41.76    6.66
   8  -4  -6   14.01    3.88
   8   4  -6   22.73    4.51
   6  -4  -6   13.48    3.49
  -6   4   6   14.41    2.96
   6   4  -6   18.86    3.65
   4  -4  -6  150.93    9.13
   4   4  -6  139.80    8.21
   2  -4  -6   91.39    5.35
   2  -4  -6  100.26    6.19
   2   4  -6   99.06    5.85
   2   4  -6   96.19    6.15
   0  -4  -6  415.02   16.44
   0  -4   6  430.74   16.34
   0  -4  -6  411.94   15.15
   2  -4   6   12.88    2.33
  -2  -4  -6   16.59    3.11
  -2   4  -6   12.27    2.56
   4  -4   6    9.41    2.30
  -4  -4  -6    5.60    2.16
  -4   4  -6    5.79    1.99
  -4   4  -6    9.44    2.54
  -6  -4  -6  132.91    9.76
  -6   4  -6  142.76    9.73
   7  -5  -6   -0.76    1.67
  -7   5   6    3.41    2.14
   7   5  -6    6.13    2.47
   5  -5  -6   64.63    6.14
   5   5  -6   62.18    5.31
   3  -5  -6    5.32    1.46
   3  -5  -6   10.58    2.68
   3   5  -6    5.96    1.83
   1  -5  -6  187.85    8.88
  -1  -5   6  160.28    8.50
   1  -5  -6  170.62    8.48
   1   5  -6  181.14    9.24
   1  -5   6   63.37    4.56
  -1  -5  -6   68.78    5.43
  -1   5  -6   65.06    5.05
  -3  -5  -6   17.74    3.62
   3  -5   6   22.26    3.32
  -3   5  -6   14.96    2.98
  -3   5  -6   14.80    2.76
  -5  -5  -6   14.53    3.44
  -5  -5  -6   14.75    3.51
  -5   5  -6   18.21    3.58
  -7  -5  -6   14.93    4.27
  -7   5  -6   10.95    3.65
   8  -6  -6   19.91    4.98
   6  -6  -6   26.49    5.00
   6   6  -6   26.15    4.22
   4  -6  -6   48.29    6.07
   4   6  -6   29.63    4.09
   2  -6  -6  127.20    8.14
  -2  -6   6  142.75    7.80
   2  -6  -6  152.97    7.71
   0  -6  -6   20.23    3.48
   0  -6   6   19.36    3.07
   0  -6  -6   19.52    2.47
   0   6  -6   19.81    3.45
   2  -6   6   60.60    4.66
  -2  -6  -6   55.16    6.39
  -2   6  -6   63.50    5.23
   4  -6   6  151.53    8.87
  -4  -6  -6  139.15    9.46
  -4   6  -6  138.47    8.50
  -6  -6  -6    3.28    2.25
  -6  -6  -6    3.25    2.35
  -6   6  -6    2.29    2.11
   7  -7  -6   35.21    6.13
   5  -7  -6   74.88    7.09
   5   7  -6   73.52    6.00
  -3  -7   6  107.59    6.73
   3  -7  -6   97.53    7.63
   3  -7  -6   91.61    5.86
   1  -7  -6   25.31    3.80
   1  -7  -6   20.01    3.42
  -1  -7   6   21.78    3.50
  -1  -7  -6    6.41    2.42
   1  -7   6   19.15    3.00
  -3  -7  -6  135.61    9.44
   3  -7   6  126.64    8.04
  -3   7  -6  128.37    7.54
   5  -7   6   34.33    5.34
  -5  -7  -6   37.30    5.70
  -5   7  -6   50.77    6.23
   6  -8  -6   22.03    4.87
   6   8  -6   24.42    4.24
  -4  -8   6  203.81   10.99
   4  -8  -6  226.69   13.16
   2  -8  -6   11.44    2.58
  -2  -8   6   12.50    2.77
   2  -8  -6   13.68    3.35
   0  -8   6    4.83    1.80
   0  -8  -6   11.78    3.05
   2  -8   6  197.09   10.52
  -2  -8  -6  202.15   12.28
   4  -8   6   22.53    4.20
  -4  -8  -6   21.79    4.61
  -6  -8  -6   13.66    4.05
   6  -8   6   18.19    4.41
  -6   8  -6   17.55    4.25
   7  -9  -6    6.17    3.37
  -5  -9   6   33.52    4.98
   5  -9  -6   38.14    6.34
   3  -9  -6    7.61    2.90
  -3  -9   6    5.95    2.26
  -1  -9   6   56.65    5.14
   1  -9  -6   55.85    6.47
  -1  -9  -6   30.68    5.26
   1  -9   6   24.91    3.88
   3  -9   6   44.70    5.75
  -3  -9  -6   37.89    6.25
  -5  -9  -6   11.16    3.70
   5  -9   6   13.95    3.90
   6 -10  -6   22.69    5.27
  -4 -10   6   35.44    5.18
   4 -10  -6   37.38    6.31
   2 -10  -6   18.26    3.68
   2 -10  -6   14.04    3.86
  -2 -10   6   14.90    3.25
   0 -10  -6   12.13    3.66
   0 -10   6   10.53    2.83
  -2 -10  -6   35.03    6.26
   2 -10   6   41.35    5.47
   4 -10   6   16.74    3.96
  -4 -10  -6    6.56    3.18
   5 -11  -6   15.54    4.43
  -5 -11   6    9.06    3.20
   3 -11  -6   47.96    7.21
  -3 -11   6   39.99    5.49
   1 -11  -6   49.35    6.65
  -1 -11   6   52.17    6.19
  -1 -11  -6   32.04    6.14
   1 -11   6   31.81    4.79
   3 -11   6    1.79    2.07
  -3 -11  -6    9.29    3.69
  -4 -12   6   11.58    3.49
   4 -12  -6   15.52    4.46
   2 -12  -6   29.06    5.15
  -2 -12   6   26.00    4.63
   0 -12   6    2.63    1.80
   0 -12  -6    0.87    2.25
   2 -12   6   18.53    4.07
  -2 -12  -6    9.72    3.93
   4 -12   6    3.34    2.77
  -4 -12  -6    3.27    2.87
  -1 -13   6    5.81    2.63
   1 -13  -6    0.78    2.27
  -1 -13  -6   36.09    7.00
   1 -13   6   54.21    6.84
   3 -13   6    3.03    2.13
  -3 -13  -6    3.01    2.76
   0 -14  -6   51.05    8.05
   0 -14   6   52.08    7.05
   8   0  -7    0.50    1.86
   6   0  -7    0.27    1.40
   4   0  -7   -0.20    0.94
   4   0  -7    0.74    0.95
   2   0  -7    0.40    0.83
   2   0  -7    0.09    0.67
   0   0  -7    0.17    0.54
   0   0  -7    0.48    0.82
   2   0   7   -0.57    0.64
  -2   0  -7    0.31    0.93
  -2   0  -7    1.06    1.05
  -4   0  -7    0.75    1.45
  -4   0  -7    0.53    1.37
  -6   0  -7    0.54    1.76
   7  -1  -7   91.69    7.90
   7   1  -7   96.78    7.80
   5  -1  -7    1.59    1.47
   5   1  -7    1.42    1.41
   3  -1  -7    1.86    1.17
   3  -1  -7    3.86    1.33
   3   1  -7    2.47    1.22
   3   1  -7    1.57    1.07
   1  -1  -7  216.74    9.67
   1  -1  -7  200.69    9.06
   1   1  -7  211.04    9.27
   1   1  -7  205.22    9.65
  -1  -1  -7  186.75    7.96
  -1  -1  -7  171.74    9.18
   1   1   7  193.91    7.73
  -1   1  -7  194.01    9.59
  -1   1  -7  196.57    7.68
  -3  -1  -7   38.89    4.57
  -3  -1  -7   38.05    4.86
  -3   1  -7   43.10    5.14
  -3   1  -7   45.46    4.73
  -5  -1  -7    3.55    2.22
  -5  -1  -7    5.68    2.43
  -5   1  -7    4.66    2.28
  -7  -1  -7   22.80    5.16
  -7   1  -7   17.85    4.84
   8  -2  -7   14.73    4.05
   8   2  -7   19.58    4.21
   6  -2  -7   24.47    4.64
   6   2  -7   25.92    4.25
   4  -2  -7   80.72    4.69
   4  -2  -7   70.04    5.93
   4   2  -7   77.16    5.84
   4   2  -7   81.74    5.43
   2  -2  -7   50.00    3.81
   2  -2  -7   40.98    3.63
   2   2  -7   44.95    3.89
   2   2  -7   35.12    3.42
   0  -2  -7  137.15    7.50
   0  -2  -7  138.09    6.33
   0  -2   7  140.15    6.76
   0   2  -7  135.64    7.61
  -2  -2  -7   14.56    2.92
  -2   2  -7   15.20    2.41
  -2   2  -7   11.56    2.55
  -4  -2  -7   33.47    4.80
  -4  -2  -7   39.26    5.18
  -4   2  -7   48.38    5.59
  -4   2  -7   42.04    5.15
  -6  -2  -7   12.12    3.71
  -6   2  -7    8.23    3.01
   7  -3  -7    5.02    2.56
   7   3  -7    5.21    2.41
   5  -3  -7   17.06    3.70
   5   3  -7   16.52    3.41
   3  -3  -7   32.84    4.42
   3   3  -7   28.38    3.82
   3   3  -7   30.10    3.91
   1  -3  -7   11.31    2.36
   1  -3  -7   11.99    2.09
   1   3  -7    9.15    2.16
   1   3  -7   10.47    2.01
   1  -3   7   45.08    3.54
  -1  -3  -7   31.07    4.20
  -1   3  -7   33.05    2.58
  -1   3  -7   33.28    4.29
  -3  -3  -7   77.77    5.88
  -3  -3  -7  112.48    7.32
  -3   3  -7   92.48    6.48
  -3   3  -7   90.96    5.98
  -5  -3  -7   75.29    7.87
  -5  -3  -7   84.41    7.03
  -5   3  -7   71.81    7.45
  -7  -3  -7   21.88    5.19
  -7   3  -7   12.01    4.11
   8  -4  -7   19.40    4.65
   8   4  -7   18.20    4.25
   6  -4  -7   19.16    4.06
   6   4  -7   23.20    4.12
   4  -4  -7  175.83   10.53
   4   4  -7  195.96   10.27
   2  -4  -7   39.28    4.55
   2  -4  -7   40.20    4.32
   2   4  -7   44.68    3.84
   2   4  -7   37.13    4.55
   0  -4  -7   78.62    4.30
   0  -4   7   77.55    5.17
   0  -4  -7   87.07    5.89
   0   4  -7   77.03    5.61
   2  -4   7   54.57    4.32
  -2  -4  -7   60.94    6.50
  -2   4  -7   67.15    5.35
  -2   4  -7   68.72    4.45
  -4  -4  -7    7.23    2.42
  -4  -4  -7    8.01    2.68
  -4   4  -7   11.28    2.82
  -4   4  -7    8.11    2.37
  -6  -4  -7   39.88    6.15
  -6   4  -7   45.30    6.24
   7  -5  -7   -0.20    1.64
   7   5  -7    4.49    2.33
   5  -5  -7  180.02   11.35
   5   5  -7  183.05   10.32
   3  -5  -7  241.30   12.41
   3   5  -7  241.52   11.71
   1  -5  -7  165.48    8.39
   1  -5  -7  172.76    8.96
  -1  -5   7  178.04    9.01
   1   5  -7  168.28    9.33
   1  -5   7   48.07    4.08
  -1  -5  -7   39.40    5.13
  -1   5  -7   43.81    5.20
   3  -5   7  153.67    8.81
  -3  -5  -7  187.36   10.79
  -3   5  -7  176.46    8.96
  -3   5  -7  176.89    9.70
  -5  -5  -7   30.48    5.04
  -5  -5  -7   38.93    5.77
  -5   5  -7   40.82    5.40
   8  -6  -7    3.34    2.57
   6  -6  -7    7.74    2.98
   6   6  -7    7.92    2.66
   4  -6  -7   17.62    3.90
   4   6  -7   16.79    3.29
  -2  -6   7   43.58    4.08
   2  -6  -7   51.41    5.65
   2  -6  -7   40.59    4.60
   0  -6   7   17.09    3.02
   0  -6  -7   25.83    4.07
   0   6  -7   24.11    3.94
  -2  -6  -7   80.78    6.83
   2  -6   7   86.92    5.96
  -2   6  -7   82.42    6.32
  -4  -6  -7   23.03    4.56
   4  -6   7   36.71    4.98
  -4   6  -7   26.49    4.14
  -6  -6  -7    4.91    2.68
  -6  -6  -7    5.60    2.77
  -6   6  -7    6.05    2.83
   7  -7  -7   -0.44    1.71
   7   7  -7   -0.39    1.73
   5  -7  -7   72.31    8.46
   5   7  -7   58.81    6.57
   3  -7  -7   48.18    6.19
  -3  -7   7   38.25    4.73
   1  -7  -7    1.43    1.37
  -1  -7   7    2.92    1.44
   1  -7  -7    3.59    1.60
  -1  -7  -7   36.74    5.52
   1  -7   7   46.78    4.33
  -1   7  -7   41.69    5.27
  -3  -7  -7    4.31    2.28
   3  -7   7    3.46    1.85
  -3   7  -7    3.70    2.00
  -5  -7  -7   39.40    6.31
   5  -7   7   65.39    7.19
  -5   7  -7   33.46    5.26
   6  -8  -7   22.87    5.05
   6   8  -7   31.76    4.96
   4  -8  -7   11.28    3.58
  -4  -8   7   10.31    2.69
  -2  -8   7  108.09    7.38
   2  -8  -7  102.72    7.00
   2  -8  -7   90.19    7.41
   0  -8   7   99.15    6.97
   0  -8  -7  103.87    7.93
  -2  -8  -7   49.07    6.85
   2  -8   7   61.01    5.29
   4  -8   7   79.63    6.99
  -4  -8  -7   77.07    8.82
   7  -9  -7   83.67   10.14
  -5  -9   7    0.37    1.78
   5  -9  -7    2.88    2.45
   3  -9  -7   38.94    6.24
  -3  -9   7   37.22    5.25
  -1  -9   7  200.66   11.10
   1  -9  -7  206.79   11.67
  -1  -9  -7    5.26    2.68
   1  -9   7    4.41    1.92
   3  -9   7   68.47    6.36
  -3  -9  -7   66.41    8.53
   5  -9   7   33.15    5.76
  -5  -9  -7   36.47    6.35
  -6 -10   7   38.06    5.83
   6 -10  -7   44.01    7.29
  -4 -10   7   10.46    3.10
   4 -10  -7   13.36    4.04
   2 -10  -7   74.22    6.46
   0 -10  -7    8.37    3.10
   0 -10   7    3.84    1.95
  -2 -10  -7   -0.06    1.87
   2 -10   7    0.42    1.49
   4 -10   7   20.09    4.38
  -4 -10  -7   23.83    5.24
   5 -11  -7   25.21    5.91
  -5 -11   7   30.04    5.30
  -3 -11   7   57.15    6.84
   3 -11  -7   55.30    7.83
  -1 -11   7   36.48    5.36
   1 -11  -7   53.22    6.84
  -1 -11  -7  154.90   11.64
   1 -11   7  138.56    9.37
   3 -11   7    3.16    2.43
  -3 -11  -7    6.61    3.18
   4 -12  -7   83.99   10.17
  -4 -12   7   67.86    7.87
  -2 -12   7    8.12    3.00
   2 -12  -7    8.14    2.99
   0 -12   7   28.30    4.86
   0 -12  -7   24.93    5.48
   2 -12   7   51.93    6.75
  -2 -12  -7   32.85    6.73
  -3 -13   7   14.06    3.98
   1 -13  -7    3.22    2.45
  -1 -13   7    3.59    2.41
  -1 -13  -7   14.02    4.65
   1 -13   7   11.41    3.52
   8   0  -8   23.19    4.89
   6   0  -8    2.97    2.00
   2   0  -8  127.60    7.25
   2   0  -8  130.93    7.28
   0   0  -8  304.96   13.16
   0   0  -8  268.50   11.37
  -2   0  -8   -0.14    1.08
  -4   0  -8   83.87    6.48
  -4   0  -8   77.51    6.60
  -6   0  -8   23.61    4.90
   7  -1  -8   54.25    6.99
   7   1  -8   40.97    5.89
   5  -1  -8   37.23    5.28
   5   1  -8   33.52    4.81
   3  -1  -8   31.81    4.21
   3  -1  -8   21.88    3.11
   3   1  -8   26.82    3.59
   3   1  -8   23.28    3.59
   1  -1  -8    1.03    0.78
   1  -1  -8    1.23    1.13
   1   1  -8    1.18    0.97
   1   1  -8    2.69    1.40
  -1  -1  -8   54.47    4.80
  -1   1  -8   50.22    5.56
   1   1   8   58.42    3.58
  -3  -1  -8   20.21    3.44
  -3  -1  -8   14.21    3.16
  -3   1  -8   19.84    3.69
  -5  -1  -8   80.52    8.13
  -5  -1  -8   74.45    6.75
  -5   1  -8   78.60    8.12
   8  -2  -8   19.58    4.62
   8   2  -8   21.85    4.71
   6  -2  -8   81.63    7.29
   6   2  -8   81.82    6.92
   4  -2  -8    0.05    0.98
   4  -2  -8   -0.01    0.92
   4   2  -8    1.19    1.24
   4   2  -8    0.14    1.08
   2  -2  -8  142.35    7.64
   2  -2  -8  142.78    7.72
   2   2  -8  138.58    7.84
   2   2  -8  128.95    7.45
   0  -2   8   49.32    3.73
   0  -2  -8   53.31    4.63
   0  -2  -8   48.04    3.34
   0   2  -8   53.03    4.63
  -2  -2  -8   66.90    4.86
   2  -2   8   41.27    3.69
  -2  -2  -8   62.93    5.38
  -2   2  -8   66.00    5.38
  -4  -2  -8  105.10    7.85
  -4  -2  -8  111.82    7.80
  -4   2  -8  110.72    7.74
  -4   2  -8   96.59    7.02
  -6  -2  -8   -0.52    1.94
  -6   2  -8    1.53    2.31
   7  -3  -8   11.19    3.66
   7   3  -8    6.03    2.66
   5  -3  -8    8.74    2.85
   5   3  -8    8.09    2.40
   3  -3  -8  153.34    7.94
   3  -3  -8  176.46    9.51
   3   3  -8  157.56    8.79
   3   3  -8  137.20    8.29
   1  -3  -8   79.82    5.61
   1  -3  -8   76.12    4.81
   1   3  -8   75.06    5.03
   1   3  -8   74.48    5.68
   1  -3   8  120.10    6.70
  -1  -3  -8  106.29    7.37
  -1   3  -8  119.93    7.59
  -3  -3  -8  133.30    8.02
  -3  -3  -8  123.31    8.55
  -3   3  -8  111.72    7.81
  -5  -3  -8    7.17    2.81
  -5  -3  -8    6.60    2.73
  -5   3  -8    2.41    2.14
   8  -4  -8   51.74    7.70
   8   4  -8   47.83    6.90
   6  -4  -8   20.25    4.53
   6   4  -8   21.47    4.26
   4  -4  -8  113.73    8.43
   4   4  -8  131.67    8.21
   2  -4  -8    2.83    1.45
   2  -4  -8    3.55    1.59
   2   4  -8    3.62    1.54
   2   4  -8    3.09    1.53
   0  -4   8   23.95    3.39
   0  -4  -8   19.69    3.45
   0   4  -8   17.03    3.32
   2  -4   8  131.32    7.42
  -2  -4  -8  136.13    8.84
  -2   4  -8  141.65    8.65
  -4  -4  -8   49.89    6.08
  -4  -4  -8   41.38    6.00
  -4   4  -8   43.76    5.73
  -6  -4  -8    6.60    3.03
  -6   4  -8    5.63    2.91
   7  -5  -8   21.04    4.76
   7   5  -8   26.38    4.93
   5  -5  -8    3.41    2.12
   5   5  -8    3.54    2.07
   3  -5  -8   28.26    4.43
   3  -5  -8   30.81    3.87
   3   5  -8   16.91    3.19
   1  -5  -8   12.07    2.64
  -1  -5   8   20.30    3.33
   1  -5  -8   11.73    2.32
   1   5  -8   15.97    3.29
   1  -5   8   21.87    3.26
  -1  -5  -8    9.39    2.69
  -1   5  -8    8.48    2.47
  -3  -5  -8    6.82    2.74
   3  -5   8    7.55    2.29
  -3   5  -8    6.48    2.37
  -5  -5  -8   19.52    4.28
  -5  -5  -8   20.93    4.40
  -5   5  -8   22.31    4.36
   6  -6  -8   17.91    4.35
   6   6  -8   27.02    4.73
   4  -6  -8  100.25    7.96
   4   6  -8   76.92    6.48
   2  -6  -8   17.89    3.20
  -2  -6   8   26.90    4.01
   2  -6  -8   24.62    3.90
   0  -6   8   40.75    4.74
   0  -6  -8   28.61    4.45
   0   6  -8   28.25    4.48
  -2  -6  -8   34.17    5.51
   2  -6   8   35.22    4.50
  -2   6  -8   29.78    4.66
  -4  -6  -8   27.36    5.06
   4  -6   8   13.43    3.26
  -6  -6  -8    4.42    2.60
   7  -7  -8    5.81    3.08
   7   7  -8    3.45    2.64
   5  -7  -8   73.86    8.83
   5   7  -8   70.73    6.34
  -3  -7   8   54.45    6.01
   3  -7  -8   38.03    5.67
   3  -7  -8   47.13    5.11
   1  -7  -8  153.57    9.35
  -1  -7   8  149.01    9.08
   1  -7   8   24.86    3.81
  -1  -7  -8   16.85    4.08
  -1   7  -8   18.66    3.79
  -3  -7  -8   10.13    3.34
   3  -7   8   14.27    3.20
  -3   7  -8   19.91    4.02
  -5  -7  -8   22.19    5.06
  -5  -7  -8   15.15    3.89
  -6  -8   8   11.75    3.23
   6  -8  -8   17.43    4.55
   6   8  -8   13.90    3.63
  -4  -8   8   27.63    4.47
   4  -8  -8   22.97    4.88
   2  -8  -8   87.49    7.17
   2  -8  -8   82.56    6.59
  -2  -8   8   94.00    7.10
   0  -8   8   37.44    4.91
   0  -8  -8   35.32    5.42
   2  -8   8   12.38    2.87
  -2  -8  -8   11.53    3.71
   4  -8   8   15.23    3.80
  -4  -8  -8   15.83    4.54
   5  -9  -8    2.60    2.65
  -5  -9   8    6.36    2.61
  -3  -9   8   25.94    4.56
   3  -9  -8   23.16    5.03
  -1  -9   8   11.33    2.99
   1  -9  -8   15.76    3.60
  -1  -9  -8    5.07    2.71
   1  -9   8    8.89    2.62
   3  -9   8    9.48    3.05
  -3  -9  -8    7.69    3.21
  -6 -10   8    4.12    2.83
   6 -10  -8    2.46    2.94
  -4 -10   8   26.39    4.94
   4 -10  -8   25.66    5.54
   2 -10  -8   46.17    6.11
  -2 -10   8   43.66    6.03
   0 -10  -8   69.82    8.40
   0 -10   8   82.63    6.81
   2 -10   8    1.67    1.74
  -2 -10  -8    0.51    2.02
   4 -10   8    5.00    2.93
  -4 -10  -8    5.34    3.16
   5 -11  -8   21.30    5.55
  -5 -11   8   23.28    4.93
  -3 -11   8    2.86    2.49
   1 -11  -8   11.38    3.64
  -1 -11   8   23.23    4.51
   1 -11   8   48.30    6.25
  -1 -11  -8   60.00    8.51
  -3 -11  -8   -0.13    2.24
   3 -11   8    2.01    2.28
   4 -12  -8    3.38    3.52
  -4 -12   8    3.29    2.64
  -2 -12   8    6.52    2.90
   0 -12  -8    8.12    3.46
   0 -12   8    5.20    2.62
   2 -12   8   17.84    4.27
  -2 -12  -8   13.19    4.54
  -1 -13   8    4.17    2.68
   1 -13  -8    4.02    2.75
   8   0  -9   -1.26    1.72
   6   0  -9    0.02    1.41
   4   0  -9    0.51    1.09
   4   0  -9   -0.41    1.03
   2   0  -9   -0.65    0.76
   2   0  -9    0.06    0.84
   0   0  -9   -0.19    0.67
   0   0  -9    0.05    1.08
  -2   0  -9   -0.24    1.21
  -4   0  -9    1.01    1.84
   7  -1  -9   13.58    3.77
   7   1  -9   15.91    3.98
   5  -1  -9   66.90    6.31
   5   1  -9   61.17    6.84
   3  -1  -9  156.14    9.01
   3  -1  -9  160.68    8.54
   3   1  -9  164.61    9.20
   3   1  -9  151.37    8.60
   1  -1  -9   12.70    2.31
   1  -1  -9   10.49    2.52
   1   1  -9   11.82    2.29
   1   1  -9    6.95    2.26
  -1  -1  -9   46.57    5.54
  -1   1  -9   47.95    5.71
  -3  -1  -9  123.62    8.69
  -3   1  -9  133.14    8.91
  -5  -1  -9   27.90    5.19
   8  -2  -9   12.83    4.03
   8   2  -9   25.12    5.08
   6  -2  -9   14.14    3.65
   6   2  -9   16.43    3.91
   4  -2  -9   44.69    5.76
   4   2  -9   43.77    5.45
   4   2  -9   43.49    5.07
   2  -2  -9    9.00    2.19
   2  -2  -9    7.94    2.23
   2   2  -9    9.03    2.45
   2   2  -9    6.59    2.03
   0  -2   9   40.48    3.62
   0  -2  -9   39.27    3.19
   0  -2  -9   46.01    5.44
   0   2  -9   39.70    5.12
  -2  -2  -9   65.93    7.10
  -2   2  -9   52.79    6.16
  -4  -2  -9   47.38    6.49
  -4   2  -9   43.66    6.04
  -6  -2  -9   33.25    6.11
   7  -3  -9   10.83    3.54
   7   3  -9   15.98    3.92
   5  -3  -9   74.57    6.95
   5   3  -9   70.97    6.37
   3  -3  -9   29.73    4.48
   3  -3  -9   38.57    4.60
   3   3  -9   36.05    4.69
   3   3  -9   37.25    4.87
   1  -3  -9    6.96    2.14
  -1  -3   9    9.08    2.18
   1  -3  -9    4.71    1.57
   1   3  -9    5.32    2.06
  -1  -3  -9  104.23    7.53
   1  -3   9  116.10    6.78
  -1   3  -9  100.37    7.47
  -3  -3  -9   16.25    3.71
  -3   3  -9   19.88    4.05
  -5  -3  -9    5.60    2.69
  -5  -3  -9    2.18    2.27
   8  -4  -9   17.57    4.75
   8   4  -9   17.93    4.58
   6  -4  -9   19.19    4.66
   6   4  -9   11.18    3.29
   4  -4  -9    8.25    2.81
   4   4  -9    2.28    1.55
   2  -4  -9   36.51    4.71
   2  -4  -9   45.06    4.99
   2   4  -9   37.50    4.59
   2   4  -9   35.57    4.87
   0  -4   9   31.23    4.10
   0  -4  -9   22.97    4.04
   0   4  -9   22.97    3.98
   2  -4   9   27.19    3.68
  -2  -4  -9   19.91    4.04
  -2   4  -9   16.79    3.61
  -4  -4  -9   13.95    3.78
  -4  -4  -9   12.04    3.47
  -4   4  -9   15.10    3.72
   7  -5  -9   24.53    5.36
   7   5  -9   18.85    4.31
   5  -5  -9    4.11    2.45
   5   5  -9    4.27    2.16
   3  -5  -9    4.93    2.16
   3  -5  -9    4.77    1.89
   3   5  -9    7.55    2.43
   3   5  -9    4.30    1.77
  -1  -5   9  300.26   14.17
   1  -5  -9  301.25   14.40
   1   5  -9  315.67   14.88
  -1  -5  -9   53.78    6.56
   1  -5   9   62.89    5.04
  -1   5  -9   50.96    6.24
   3  -5   9   74.20    5.79
  -3  -5  -9   54.67    7.16
  -3   5  -9   61.06    7.02
  -5  -5  -9    4.83    2.82
  -5  -5  -9    5.49    2.97
   6  -6  -9   18.79    4.54
   6   6  -9   36.37    5.66
   4  -6  -9    9.41    3.32
   4   6  -9    7.71    2.51
   2  -6  -9  120.39    7.75
   2  -6  -9  110.24    7.61
  -2  -6   9  108.42    7.56
   2   6  -9  113.67    8.19
   0  -6  -9   10.40    3.03
   0  -6   9    9.69    2.58
   0   6  -9   11.24    3.05
  -2  -6  -9   15.48    3.94
   2  -6   9   17.38    3.27
  -2   6  -9   15.04    3.51
  -4  -6  -9   33.19    5.91
  -4  -6  -9   25.24    4.54
   7  -7  -9    7.25    3.39
   7   7  -9    9.60    3.39
   5  -7  -9    9.33    3.58
   5   7  -9   19.84    4.07
  -3  -7   9   20.70    3.87
   3  -7  -9   30.45    4.44
   3  -7  -9   30.93    5.02
  -1  -7   9    3.58    1.89
   1  -7  -9    1.76    1.66
   1  -7   9   32.07    4.50
  -1  -7  -9   27.96    5.16
  -1   7  -9   27.93    4.83
   3  -7   9    8.05    2.80
  -3  -7  -9    4.67    2.66
  -3   7  -9    5.85    2.62
  -5  -7  -9   25.64    5.64
  -5  -7  -9   27.00    5.15
   6  -8  -9    1.59    2.45
  -6  -8   9    0.43    1.92
   6   8  -9    0.08    1.72
  -4  -8   9   44.52    5.94
   4  -8  -9   47.65    7.11
   2  -8  -9    6.32    2.33
  -2  -8   9   12.59    3.30
   0  -8   9   30.58    4.74
   0  -8  -9   33.68    5.64
   2  -8   9   42.55    5.43
  -2  -8  -9   44.42    7.03
  -4  -8  -9    3.07    2.86
   4  -8   9    3.48    2.51
  -5  -9   9   72.30    8.26
   5  -9  -9   87.48   10.52
  -3  -9   9   64.33    7.55
   3  -9  -9   90.92    8.21
   1  -9  -9   29.73    5.08
  -1  -9   9   31.66    5.03
   1  -9   9   74.13    6.47
  -1  -9  -9   74.99    9.11
  -3  -9  -9   61.40    8.78
   3  -9   9   50.62    6.63
  -4 -10   9   41.86    6.36
   4 -10  -9   45.75    7.52
   2 -10  -9   12.05    3.45
  -2 -10   9   10.01    3.20
   0 -10  -9   57.51    7.89
   0 -10   9   73.39    6.63
   2 -10   9   45.64    6.39
  -2 -10  -9   43.65    7.57
  -3 -11   9   38.85    6.20
  -1 -11   9    8.25    3.05
   1 -11  -9    6.56    3.23
  -1 -11  -9   29.52    6.22
   1 -11   9   34.11    5.48
  -2 -12   9    7.82    3.30
   0 -12   9   25.57    4.95
   0 -12  -9   17.05    4.75
   8   0 -10   44.97    6.89
   6   0 -10   26.97    4.96
   4   0 -10  235.29   12.74
   4   0 -10  244.52   11.66
   2   0 -10   84.43    5.99
   2   0 -10   75.01    6.06
   0   0  10   38.40    3.50
   0   0 -10   42.45    5.51
  -2   0 -10   94.46    7.65
  -4   0 -10   59.14    7.50
   7  -1 -10   46.24    6.86
   7   1 -10   34.01    5.81
   5  -1 -10    7.91    2.78
   5   1 -10    7.20    2.70
   3  -1 -10  136.61    8.24
   3  -1 -10  120.27    8.11
   3   1 -10  137.12    8.36
   3   1 -10  155.97    9.04
   1  -1 -10   17.64    2.86
   1  -1 -10    8.60    2.57
   1   1 -10   18.46    3.02
   1   1 -10   17.82    3.52
  -1  -1 -10   63.51    6.97
  -1   1 -10   60.25    6.95
  -3  -1 -10   53.91    6.84
  -3   1 -10   56.37    7.15
  -5  -1 -10   16.38    4.47
   6  -2 -10   80.25    7.67
   6   2 -10   77.57    7.27
   4  -2 -10   28.90    4.66
   4   2 -10   33.26    5.02
   4   2 -10   34.27    4.66
   2  -2 -10   43.37    5.30
   2  -2 -10   45.30    4.34
   2   2 -10   49.59    5.44
   2   2 -10   55.21    6.18
   0  -2  10  144.99    7.93
   0  -2 -10  129.23    8.63
   0   2 -10  133.30    8.86
  -2  -2 -10   25.77    4.67
  -2   2 -10   27.21    4.77
  -4  -2 -10  107.46    8.82
  -4   2 -10  110.55    8.82
   7  -3 -10   48.56    7.40
   7   3 -10   48.33    6.97
   5  -3 -10  141.27   10.17
   5   3 -10  138.56    9.61
   3  -3 -10   43.98    5.50
   3  -3 -10   49.26    5.55
   3   3 -10   42.52    5.49
   3   3 -10   50.59    5.88
  -1  -3  10  211.44   10.65
   1  -3 -10  216.27   10.07
   1  -3 -10  208.61   11.42
   1   3 -10  213.54   11.72
   1  -3  10  137.48    8.02
  -1  -3 -10  146.74    9.56
  -1   3 -10  133.02    9.18
  -3  -3 -10    7.02    2.79
  -3   3 -10    5.48    2.52
  -5  -3 -10   30.14    5.74
   6  -4 -10   23.67    4.98
   6   4 -10   30.02    5.19
   4  -4 -10  101.81    8.04
   4   4 -10   93.98    7.34
   4   4 -10   85.71    6.93
   2  -4 -10   46.35    4.43
  -2  -4  10   52.61    4.80
   2  -4 -10   40.99    5.19
   2   4 -10   40.47    4.94
   2   4 -10   49.10    6.02
   0  -4 -10  173.97   10.70
   0  -4  10  190.94   10.07
  -2  -4 -10   40.26    6.06
   2  -4  10   54.13    4.85
  -2   4 -10   51.20    6.45
  -4  -4 -10   -0.30    2.11
  -4   4 -10    0.34    2.17
   7  -5 -10   16.52    4.84
   7   5 -10   14.40    4.02
   5  -5 -10   11.77    3.74
   5   5 -10    8.63    2.91
   3  -5 -10    4.78    2.14
   3  -5 -10    4.52    2.11
   3   5 -10    0.62    1.73
   3   5 -10    2.93    1.66
  -1  -5  10    6.42    2.21
   1  -5 -10    8.46    2.69
   1   5 -10    8.74    2.79
   1  -5  10   18.27    3.41
  -1  -5 -10   15.47    3.82
  -1   5 -10   12.53    3.31
  -3  -5 -10    2.91    2.31
  -3   5 -10    1.87    1.92
   6  -6 -10   18.72    4.87
   6   6 -10   12.21    3.68
   4  -6 -10   14.52    3.94
   4   6 -10   15.19    3.58
   2  -6 -10  148.50    9.28
  -2  -6  10  142.22    9.27
   2   6 -10  153.06   10.06
   0  -6 -10   14.90    3.66
   0  -6  10   22.94    3.90
   0   6 -10   23.73    4.67
   2  -6  10    4.09    1.92
  -2  -6 -10    3.68    2.31
  -2   6 -10    2.90    2.15
  -4  -6 -10    6.98    3.38
   5  -7 -10   32.58    6.36
   5   7 -10   28.39    4.92
  -3  -7  10   39.84    5.63
   3  -7 -10   37.56    5.94
  -1  -7  10   70.53    6.48
   1  -7 -10   87.31    7.36
   1   7 -10   83.83    7.36
  -1  -7 -10    2.08    2.22
   1  -7  10   10.07    2.80
  -1   7 -10    5.62    2.68
  -3  -7 -10  153.55   11.77
   3  -7  10  152.23    9.78
  -3   7 -10  144.93   10.59
  -6  -8  10    3.75    2.36
   6  -8 -10    1.18    2.73
   6   8 -10    0.12    2.01
  -4  -8  10   40.48    6.04
   4  -8 -10   41.10    6.96
   2  -8 -10   52.48    6.50
  -2  -8  10   39.80    5.87
   0  -8 -10   40.27    6.29
   0  -8  10   40.55    5.60
   2  -8  10  119.75    8.59
  -2  -8 -10  128.25   10.75
  -2   8 -10  122.66    9.62
  -5  -9  10   19.57    4.75
   5  -9 -10   12.27    4.61
  -3  -9  10    2.38    2.37
   1  -9 -10   12.96    3.73
  -1  -9  10   15.80    3.79
   1  -9  10    2.81    2.04
  -1  -9 -10    2.95    2.60
   3  -9  10    1.08    2.15
  -3  -9 -10    3.23    2.99
  -4 -10  10   15.36    4.08
  -2 -10  10    4.23    2.62
   2 -10 -10    6.76    2.83
   0 -10  10    6.20    2.65
   0 -10 -10    8.51    3.40
   2 -10  10   39.54    6.13
  -2 -10 -10   50.25    8.38
  -3 -11  10   18.70    4.58
  -1 -11  10   18.92    4.58
   1 -11 -10   13.13    4.09
  -1 -11 -10   17.81    5.13
   1 -11  10   21.68    4.61
   6   0 -11   -0.25    1.43
   4   0 -11    0.49    1.51
   4   0 -11   -0.23    1.25
   2   0 -11   -0.91    1.01
   2   0 -11    0.64    1.34
   0   0 -11   -0.21    1.42
  -2   0 -11    0.78    1.74
  -4   0 -11   -0.66    2.22
   7  -1 -11    2.00    2.37
   7   1 -11    3.03    2.57
   5  -1 -11   12.83    3.50
   5   1 -11   13.06    3.57
   3  -1 -11   36.59    5.12
   3  -1 -11   45.63    5.44
   3   1 -11   44.16    5.54
   3   1 -11   38.88    5.20
   1  -1 -11   76.35    6.66
   1  -1 -11   76.64    5.53
   1   1 -11   82.73    5.78
   1   1 -11   76.71    6.67
  -1  -1 -11   43.93    6.21
  -1   1 -11   41.26    5.92
  -3  -1 -11   25.09    5.13
  -3   1 -11   21.68    4.74
   6  -2 -11   25.36    5.08
   6   2 -11   23.84    4.82
   4  -2 -11   22.82    4.41
   4   2 -11   26.39    4.35
   4   2 -11   19.80    4.01
   2  -2 -11   66.03    5.40
   2  -2 -11   56.50    6.54
   2   2 -11   63.90    5.50
   2   2 -11   60.78    6.75
   0  -2  11   28.35    4.07
   0  -2 -11   22.95    4.36
   0   2 -11   11.82    3.38
  -2  -2 -11   18.69    4.25
  -2   2 -11   18.44    4.32
  -4  -2 -11    2.36    2.61
  -4   2 -11    0.46    2.21
   7  -3 -11    4.12    2.87
   7   3 -11   11.11    3.72
   5  -3 -11   46.28    6.74
   5   3 -11   43.75    6.19
   3  -3 -11   24.39    4.26
   3  -3 -11   36.15    5.09
   3   3 -11   31.60    4.90
   3   3 -11   34.46    4.90
   1  -3 -11   10.55    2.95
  -1  -3  11   13.22    2.87
   1   3 -11   15.84    3.68
   1  -3  11   33.47    4.50
  -1  -3 -11   27.22    4.97
  -1   3 -11   27.80    5.10
  -3  -3 -11    6.44    3.09
  -3   3 -11    6.36    2.98
   6  -4 -11   19.26    4.92
   6   4 -11   23.82    4.81
   4  -4 -11    2.21    1.93
   4   4 -11    2.81    1.84
   4   4 -11    1.85    1.83
   2  -4 -11   46.29    5.80
   2  -4 -11   41.96    5.04
  -2  -4  11   41.54    5.27
   2   4 -11   36.45    5.52
   0  -4  11    4.33    2.07
   0  -4 -11    3.73    2.16
   0   4 -11    5.47    2.45
  -2  -4 -11  108.78    9.11
  -2   4 -11   99.90    8.38
  -4  -4 -11    3.00    2.76
  -4   4 -11   -0.52    2.09
   5  -5 -11  111.52    9.80
   5   5 -11  113.02    9.01
   3  -5 -11   23.64    4.20
  -3  -5  11   24.60    4.22
   3  -5 -11   31.19    4.97
   3   5 -11   21.35    4.30
   3   5 -11   14.26    3.30
   1  -5 -11   34.69    5.44
  -1  -5  11   43.08    5.47
   1   5 -11   44.68    6.28
  -1  -5 -11   46.46    6.70
   1  -5  11   43.08    5.45
  -1   5 -11   35.67    5.76
  -3  -5 -11   33.28    6.19
  -3   5 -11   42.28    6.64
   6  -6 -11    5.31    3.49
   6   6 -11    6.75    3.10
  -4  -6  11    8.63    2.89
   4  -6 -11   14.02    3.96
   4   6 -11    6.95    2.72
   2  -6 -11   16.23    3.73
  -2  -6  11   20.61    4.06
   2   6 -11   19.34    4.23
   0  -6  11   10.59    2.98
   0  -6 -11   11.60    3.48
   0   6 -11   13.95    3.55
  -2  -6 -11   31.41    5.98
   2  -6  11   44.32    5.66
  -2   6 -11   43.14    6.67
   5  -7 -11    1.03    2.83
  -5  -7  11    2.06    2.16
   5   7 -11    2.96    2.39
  -3  -7  11    7.99    2.90
  -1  -7  11   -0.95    1.35
   1  -7 -11    0.36    1.70
   1   7 -11   -0.19    1.64
  -1  -7 -11   34.13    6.18
   1  -7  11   58.36    6.58
  -1   7 -11   38.49    6.31
  -3  -7 -11   11.92    4.30
  -3   7 -11   18.09    4.68
  -4  -8  11   20.44    4.52
   4  -8 -11   12.63    4.55
  -2  -8  11   67.88    7.86
   2  -8 -11   61.09    7.50
   0  -8 -11   11.25    3.81
   0  -8  11    8.55    3.05
  -2  -8 -11   11.63    4.32
   2  -8  11   10.01    3.22
  -2   8 -11   14.53    4.07
  -3  -9  11    6.20    2.87
  -1  -9  11  106.51    8.80
   1  -9 -11  114.28    9.61
  -1  -9 -11    1.11    2.68
   1  -9  11    1.24    1.96
   2 -10 -11    9.55    3.53
  -2 -10  11   20.79    4.74
   0 -10 -11   33.97    6.61
   0 -10  11   38.38    5.95
   6   0 -12   32.09    5.88
   4   0 -12   38.58    5.31
   4   0 -12   31.48    5.23
   2   0 -12  256.07   12.78
   2   0 -12  255.42   13.77
   0   0 -12   24.88    4.77
  -2   0 -12    7.91    3.20
  -4   0 -12    3.41    2.99
   5  -1 -12    7.05    3.10
   5   1 -12    7.20    2.89
   3  -1 -12    0.65    1.61
   3  -1 -12   -0.17    1.37
   3   1 -12    1.24    1.63
   3   1 -12    1.81    1.86
  -1  -1  12   40.34    4.86
   1  -1 -12   43.15    6.11
   1   1 -12   45.46    6.20
   1   1 -12   48.43    4.53
  -1  -1 -12   29.93    5.49
  -1   1 -12   34.64    5.83
  -3  -1 -12   15.15    4.52
  -3   1 -12   13.71    4.26
   6  -2 -12   10.24    3.48
   6   2 -12    8.91    3.32
   4  -2 -12   13.20    3.53
   4   2 -12   22.39    4.28
   4   2 -12   28.67    4.95
   2  -2 -12   28.26    4.25
   2  -2 -12   33.31    5.18
   2   2 -12   32.32    4.62
   2   2 -12   27.85    4.89
   0  -2 -12   95.60    8.29
   0   2 -12  124.34    9.24
  -2  -2 -12    8.84    3.40
  -2   2 -12    7.15    3.03
   5  -3 -12   13.63    3.93
   5   3 -12   17.22    4.07
   3  -3 -12   78.03    6.57
   3  -3 -12   65.48    7.26
   3   3 -12   66.11    6.20
   3   3 -12   74.65    7.94
  -1  -3  12    1.54    1.73
   1  -3 -12    3.08    2.08
   1   3 -12    1.58    1.95
  -1  -3 -12   23.44    4.93
  -1   3 -12   20.00    4.58
  -3  -3 -12   42.53    7.16
  -3   3 -12   33.98    6.29
   6  -4 -12   16.03    4.78
   6   4 -12   16.73    4.24
   4  -4 -12   15.93    3.93
   4   4 -12   17.05    3.99
   4   4 -12   18.42    4.12
   2  -4 -12   16.45    3.78
  -2  -4  12   12.00    3.14
   2   4 -12    7.50    2.72
   0  -4  12   15.53    3.56
   0  -4 -12   15.15    3.86
   0   4 -12    8.88    3.19
  -2  -4 -12  136.32   10.61
  -2   4 -12  102.97    9.08
   5  -5 -12   -0.86    2.20
   5   5 -12    0.64    1.81
   3  -5 -12   19.83    4.15
  -3  -5  12   16.83    3.80
   3   5 -12   16.63    4.09
   1  -5 -12    3.56    2.35
  -1  -5  12    4.89    2.29
   1   5 -12    5.22    2.62
   1  -5  12   21.75    4.18
  -1  -5 -12   34.53    6.10
  -1   5 -12   26.37    5.19
  -3  -5 -12   26.27    5.99
  -3   5 -12   23.35    5.34
  -4  -6  12   19.35    4.33
   4  -6 -12   12.49    4.05
   2  -6 -12    3.31    2.16
  -2  -6  12    6.96    2.86
   2   6 -12    6.02    2.96
   0  -6 -12   51.93    7.27
   0  -6  12   41.53    5.79
   0   6 -12   54.47    7.45
  -2  -6 -12    7.80    3.55
  -2   6 -12    5.83    3.18
  -3  -7  12   21.58    4.62
   1  -7 -12   20.89    4.81
  -1  -7  12   22.78    4.57
   1   7 -12   32.48    5.87
   1  -7  12   10.66    3.32
  -1  -7 -12    3.31    2.93
  -1   7 -12    8.49    3.61
  -4  -8  12    8.91    3.57
  -2  -8  12   23.27    4.87
   2  -8 -12   12.28    3.88
   0  -8  12    1.03    2.18
   0  -8 -12    6.52    3.27
   0   8 -12    2.11    2.39
   1  -9 -12   -0.45    2.38
  -1  -9  12    0.46    1.96
   4   0 -13   -0.03    1.88
   4   0 -13   -0.39    1.75
   2   0 -13   -0.15    1.57
   2   0 -13    0.78    1.41
   0   0 -13    0.98    1.72
  -2   0 -13    1.32    2.27
   5  -1 -13   11.65    3.69
   5   1 -13    9.65    3.54
   3  -1 -13   25.86    4.58
   3  -1 -13   22.48    4.58
   3   1 -13   30.21    5.35
   3   1 -13   27.62    4.79
   1  -1 -13    0.78    1.84
   1   1 -13    2.40    2.04
  -1  -1 -13   23.73    5.19
  -1   1 -13   24.92    5.19
   4  -2 -13   19.54    4.43
   4   2 -13   16.18    3.94
   4   2 -13   20.84    4.39
   2  -2 -13    8.65    3.05
   2   2 -13    7.87    2.87
   2   2 -13   10.25    2.82
   0  -2 -13   43.63    6.70
   0   2 -13   52.57    7.42
  -2  -2 -13   35.94    6.52
  -2   2 -13   25.72    5.56
   5  -3 -13    1.34    2.32
   5   3 -13    2.91    2.46
   3  -3 -13   26.11    4.71
   3  -3 -13   26.68    4.84
   3   3 -13   28.41    4.81
   3   3 -13   25.43    4.97
  -1  -3  13   14.36    3.56
   1  -3 -13   12.95    3.87
   1   3 -13   20.87    4.73
  -1  -3 -13   32.41    6.12
  -1   3 -13   28.16    5.65
   4  -4 -13    3.82    2.60
   4   4 -13   -0.03    1.85
   4   4 -13   -0.15    1.49
   2  -4 -13   65.18    7.94
  -2  -4  13   59.49    6.77
   2   4 -13   49.85    7.16
   0  -4  13    7.69    2.88
   0  -4 -13    4.56    2.66
   0   4 -13    7.31    3.03
  -2  -4 -13   10.41    4.26
  -2   4 -13   10.59    3.81
  -3  -5  13    8.77    2.90
   3  -5 -13    9.61    3.37
   3   5 -13   15.29    4.23
  -1  -5  13   62.03    7.10
   1  -5 -13   58.58    7.65
   1   5 -13   50.03    7.36
  -1  -5 -13   10.34    4.08
  -1   5 -13    4.26    3.00
  -4  -6  13   20.88    4.47
   2  -6 -13   26.53    5.20
  -2  -6  13   27.45    5.11
   2   6 -13   33.43    6.04
   0  -6  13    3.14    2.44
   0  -6 -13    5.36    2.97
   0   6 -13    6.27    3.07
  -3  -7  13   23.24    4.98
  -1  -7  13    6.20    2.94
   1  -7 -13    7.97    3.49
   1   7 -13    4.67    3.02
   4   0 -14   42.11    6.36
   4   0 -14   28.30    5.29
   2   0 -14   33.62    6.00
   0   0 -14   23.02    5.10
   3  -1 -14   29.79    5.60
   3  -1 -14   31.36    5.15
   3   1 -14   24.38    5.09
   3   1 -14   31.68    5.23
   1  -1 -14    7.78    3.19
   1   1 -14   13.17    3.93
  -1  -1 -14    2.00    2.43
  -1   1 -14    2.84    2.57
   4  -2 -14    5.36    2.69
   4   2 -14    5.19    2.66
   4   2 -14   10.55    3.75
  -2  -2  14   12.28    3.32
   2  -2 -14    5.04    2.82
   2   2 -14    6.17    3.06
   0  -2 -14   24.20    5.51
   0   2 -14   24.68    5.60
  -3  -3  14    5.49    2.59
   3  -3 -14    0.38    2.04
   3   3 -14    6.64    3.19
   3   3 -14    6.23    2.54
   1  -3 -14   10.55    3.82
   1   3 -14    9.35    3.55
   2  -4 -14   32.43    6.04
  -2  -4  14   31.72    5.26
   2   4 -14   16.62    4.64
   0  -4 -14   29.84    5.94
   0   4 -14   17.41    4.69
   1  -5 -14    2.31    2.57
   1   5 -14    1.97    2.51
   0   0   0    0.00    0.00
;
_shelx_hkl_checksum   27420

