####################################################################### 
# 
# This file contains crystal structure data downloaded from the 
# Cambridge Structural Database (CSD) hosted by the Cambridge 
# Crystallographic Data Centre (CCDC).
# 
# Full information about CCDC data access policies and citation 
# guidelines are available at http://www.ccdc.cam.ac.uk/access/V1 
# 
# Audit and citation data items may have been added by the CCDC. 
# Please retain this information to preserve the provenance of 
# this file and to allow appropriate attribution of the data. 
# 
#######################################################################

data_033
_audit_block_doi                 10.5517/ccdc.csd.cc255rpt
_database_code_depnum_ccdc_archive 'CCDC 2001536'
loop_
_citation_id
_citation_doi
_citation_year
1 10.1021/acs.cgd.0c00888 2020
loop_
_audit_author_name
_audit_author_address
'Jingcheng Feng'
;Technical Institution of Physics and Chemistry, Chinese Academy of Sciences
China
;
_audit_update_record             
;
2020-05-26 deposited with the CCDC.	2020-12-31 downloaded from the CCDC.
;

_audit_creation_method           SHELXL-2018/3
_shelx_SHELXL_version_number     2018/3
_chemical_name_systematic        ?
_chemical_name_common            ?
_chemical_melting_point          ?
_chemical_formula_moiety         ?
_chemical_formula_sum            'B10 La2 O19 Sr'
_chemical_formula_weight         777.54

loop_
_atom_type_symbol
_atom_type_description
_atom_type_scat_dispersion_real
_atom_type_scat_dispersion_imag
_atom_type_scat_source
B B 0.0013 0.0007 'International Tables Vol C Tables 4.2.6.8 and 6.1.1.4'
La La -0.2871 2.4523 'International Tables Vol C Tables 4.2.6.8 and 6.1.1.4'
O O 0.0106 0.0060 'International Tables Vol C Tables 4.2.6.8 and 6.1.1.4'
Sr Sr -1.5307 3.2498 'International Tables Vol C Tables 4.2.6.8 and 6.1.1.4'

_space_group_crystal_system      monoclinic
_space_group_IT_number           5
_space_group_name_H-M_alt        'C 2'
_space_group_name_Hall           'C 2y'

_shelx_space_group_comment       
;
The symmetry employed for this shelxl refinement is uniquely defined
by the following loop, which should always be used as a source of
symmetry information in preference to the above space-group names.
They are only intended as comments.
;

loop_
_space_group_symop_operation_xyz
'x, y, z'
'-x, y, -z'
'x+1/2, y+1/2, z'
'-x+1/2, y+1/2, -z'

_cell_length_a                   11.1298(4)
_cell_length_b                   6.5751(2)
_cell_length_c                   9.2495(3)
_cell_angle_alpha                90
_cell_angle_beta                 91.381(3)
_cell_angle_gamma                90
_cell_volume                     676.68(4)
_cell_formula_units_Z            2
_cell_measurement_temperature    293(2)
_cell_measurement_reflns_used    7292
_cell_measurement_theta_min      3.5560
_cell_measurement_theta_max      26.3450

_exptl_crystal_description       plate
_exptl_crystal_colour            colorless
_exptl_crystal_density_meas      ?
_exptl_crystal_density_method    ?
_exptl_crystal_density_diffrn    3.816
_exptl_crystal_F_000             708
_exptl_transmission_factor_min   ?
_exptl_transmission_factor_max   ?
_exptl_crystal_size_max          ?
_exptl_crystal_size_mid          ?
_exptl_crystal_size_min          ?
_exptl_absorpt_coefficient_mu    10.251
_shelx_estimated_absorpt_T_min   ?
_shelx_estimated_absorpt_T_max   ?
_exptl_absorpt_correction_type   ?
_exptl_absorpt_correction_T_min  ?
_exptl_absorpt_correction_T_max  ?
_exptl_absorpt_process_details   ?
_exptl_absorpt_special_details   ?
_diffrn_ambient_temperature      293(2)
_diffrn_radiation_wavelength     0.71073
_diffrn_radiation_type           MoK\a
_diffrn_source                   ?
_diffrn_measurement_device_type  'XtaLAB Synergy, Dualflex, HyPix'
_diffrn_measurement_method       ?
_diffrn_detector_area_resol_mean ?
_diffrn_reflns_number            8611
_diffrn_reflns_av_unetI/netI     0.0196
_diffrn_reflns_av_R_equivalents  0.0377
_diffrn_reflns_limit_h_min       -13
_diffrn_reflns_limit_h_max       13
_diffrn_reflns_limit_k_min       -8
_diffrn_reflns_limit_k_max       8
_diffrn_reflns_limit_l_min       -11
_diffrn_reflns_limit_l_max       11
_diffrn_reflns_theta_min         3.599
_diffrn_reflns_theta_max         26.398
_diffrn_reflns_theta_full        25.242
_diffrn_measured_fraction_theta_max 0.992
_diffrn_measured_fraction_theta_full 0.993
_diffrn_reflns_Laue_measured_fraction_max 0.992
_diffrn_reflns_Laue_measured_fraction_full 0.993
_diffrn_reflns_point_group_measured_fraction_max 0.994
_diffrn_reflns_point_group_measured_fraction_full 0.994
_reflns_number_total             1378
_reflns_number_gt                1377
_reflns_threshold_expression     'I > 2\s(I)'
_reflns_Friedel_coverage         0.837
_reflns_Friedel_fraction_max     0.995
_reflns_Friedel_fraction_full    0.996

_reflns_special_details          
;
 Reflections were merged by SHELXL according to the crystal
 class for the calculation of statistics and refinement.
 
 _reflns_Friedel_fraction is defined as the number of unique
 Friedel pairs measured divided by the number that would be
 possible theoretically, ignoring centric projections and
 systematic absences. Completness statistics refer to single and
 composite reflections containing twin component 1 only.
;

_computing_data_collection       ?
_computing_cell_refinement       ?
_computing_data_reduction        ?
_computing_structure_solution    'SHELXT 2018/2 (Sheldrick, 2018)'
_computing_structure_refinement  'SHELXL-2018/3 (Sheldrick, 2018)'
_computing_molecular_graphics    ?
_computing_publication_material  ?
_refine_special_details          
;
 Refined as a 2-component inversion twin.
;
_refine_ls_structure_factor_coef Fsqd
_refine_ls_matrix_type           full
_refine_ls_weighting_scheme      calc
_refine_ls_weighting_details     
'w=1/[\s^2^(Fo^2^)+(0.1341P)^2^+2.3962P] where P=(Fo^2^+2Fc^2^)/3'
_atom_sites_solution_primary     ?
_atom_sites_solution_secondary   ?
_atom_sites_solution_hydrogens   .
_refine_ls_hydrogen_treatment    undef
_refine_ls_extinction_method     none
_refine_ls_extinction_coef       .
_refine_ls_abs_structure_details 
;
 Refined as an inversion twin.
;
_refine_ls_abs_structure_Flack   0.26(5)
_chemical_absolute_configuration ?
_refine_ls_number_reflns         1378
_refine_ls_number_parameters     147
_refine_ls_number_restraints     115
_refine_ls_R_factor_all          0.0612
_refine_ls_R_factor_gt           0.0612
_refine_ls_wR_factor_ref         0.1583
_refine_ls_wR_factor_gt          0.1583
_refine_ls_goodness_of_fit_ref   1.150
_refine_ls_restrained_S_all      1.100
_refine_ls_shift/su_max          0.000
_refine_ls_shift/su_mean         0.000

loop_
_atom_site_label
_atom_site_type_symbol
_atom_site_symmetry_multiplicity
_atom_site_Wyckoff_symbol
_atom_site_fract_x
_atom_site_fract_y
_atom_site_fract_z
_atom_site_U_iso_or_equiv
_atom_site_adp_type
_atom_site_occupancy
_atom_site_site_symmetry_order
_atom_site_calc_flag
_atom_site_refinement_flags_posn
_atom_site_refinement_flags_adp
_atom_site_refinement_flags_occupancy
_atom_site_disorder_assembly
_atom_site_disorder_group
Sr2 Sr 2  b  0.500000 0.8268(3) 0.500000 0.0231(5) Uani 0.7 2 d S TU P . .
La2 La  2  b 0.500000 0.8268(3) 0.500000 0.0231(5) Uani 0.3 2 d S TU P . .
La1 La 4  c 0.33574(11) 0.64301(15) 0.86073(13) 0.0369(5) Uani 0.8507 1 d . U P . .
Sr1 Sr 4  c  0.33574(11) 0.64301(15) 0.86073(13) 0.0369(5) Uani 0.15 1 d . U P . .
O10 O 4  c 0.3904(11) 0.166(2) 0.1114(15) 0.033(3) Uani 1 1 d . U . . .
O2 O  4  c 0.3529(12) 0.637(4) 0.3596(14) 0.035(3) Uani 1 1 d . U . . .
O6 O  4  c 0.3247(14) 0.832(2) 0.1344(14) 0.038(3) Uani 1 1 d . U . . .
O1 O  4  c 0.3062(13) 0.643(3) 0.6015(15) 0.042(3) Uani 1 1 d . U . . .
O3 O  4  c 0.1483(12) 0.596(2) 0.4224(17) 0.034(3) Uani 1 1 d . U . . .
O9 O  4  c 0.5719(11) 0.293(2) 0.2142(15) 0.032(3) Uani 1 1 d . U . . .
O4 O  4  c 0.0181(13) 0.442(2) 0.2487(15) 0.034(3) Uani 1 1 d . U . . .
O8 O  4  c 0.4276(12) 0.522(3) 0.1289(15) 0.032(3) Uani 1 1 d . U . . .
O5 O  4  c 0.2170(11) 0.518(2) 0.1786(16) 0.031(3) Uani 1 1 d . U . . .
B5 B  4  c 0.4606(17) 0.319(3) 0.156(2) 0.027(4) Uani 1 1 d . U . . .
B3 B  4  c 0.3268(17) 0.631(4) 0.202(2) 0.033(4) Uani 1 1 d . U . . .
B1 B  4  c 0.269(3) 0.625(4) 0.463(3) 0.043(5) Uani 1 1 d . U . . .
B2 B  4  c 0.116(2) 0.585(4) 0.260(2) 0.038(5) Uani 1 1 d . U . . .
B4 B  4  c 0.432(2) 0.948(4) 0.123(2) 0.032(4) Uani 1 1 d . U . . .
O7 O 2 a 0.500000 0.878(3) 0.000000 0.036(5) Uani 1 2 d S TU P . .

loop_
_atom_site_aniso_label
_atom_site_aniso_U_11
_atom_site_aniso_U_22
_atom_site_aniso_U_33
_atom_site_aniso_U_23
_atom_site_aniso_U_13
_atom_site_aniso_U_12
Sr2 0.0214(8) 0.0254(8) 0.0225(8) 0.000 -0.0005(6) 0.000
La2 0.0214(8) 0.0254(8) 0.0225(8) 0.000 -0.0005(6) 0.000
La1 0.0385(7) 0.0359(7) 0.0363(7) 0.0003(4) 0.0004(4) 0.0009(4)
Sr1 0.0385(7) 0.0359(7) 0.0363(7) 0.0003(4) 0.0004(4) 0.0009(4)
O10 0.025(6) 0.038(8) 0.038(7) 0.000(6) 0.000(5) -0.002(5)
O2 0.034(6) 0.035(7) 0.035(6) 0.003(5) -0.004(5) -0.010(7)
O6 0.053(9) 0.030(6) 0.032(6) 0.002(6) 0.005(6) 0.010(7)
O1 0.040(7) 0.044(8) 0.040(7) -0.004(7) -0.009(6) 0.001(7)
O3 0.020(6) 0.038(7) 0.044(7) 0.002(6) 0.002(5) 0.000(5)
O9 0.020(6) 0.028(7) 0.047(7) 0.004(6) 0.005(5) -0.009(5)
O4 0.032(6) 0.033(7) 0.036(7) 0.004(5) -0.001(5) 0.004(6)
O8 0.026(6) 0.035(7) 0.036(7) 0.003(5) 0.003(5) -0.004(6)
O5 0.021(6) 0.024(5) 0.047(7) -0.006(5) -0.004(5) -0.007(4)
B5 0.026(8) 0.028(9) 0.028(8) 0.005(8) 0.010(7) 0.005(8)
B3 0.019(8) 0.038(11) 0.042(10) -0.004(10) 0.001(7) -0.006(8)
B1 0.056(15) 0.029(11) 0.043(12) -0.003(10) 0.008(11) 0.009(11)
B2 0.035(10) 0.046(13) 0.033(10) 0.017(9) -0.003(8) 0.002(9)
B4 0.037(11) 0.028(10) 0.031(9) -0.001(8) 0.001(8) -0.007(9)
O7 0.034(9) 0.034(12) 0.039(9) 0.000 -0.003(8) 0.000

_geom_special_details            
;
 All esds (except the esd in the dihedral angle between two l.s. planes)
 are estimated using the full covariance matrix.  The cell esds are taken
 into account individually in the estimation of esds in distances, angles
 and torsion angles; correlations between esds in cell parameters are only
 used when they are defined by crystal symmetry.  An approximate (isotropic)
 treatment of cell esds is used for estimating esds involving l.s. planes.
;

loop_
_geom_bond_atom_site_label_1
_geom_bond_atom_site_label_2
_geom_bond_distance
_geom_bond_site_symmetry_2
_geom_bond_publ_flag
Sr2 O2 2.414(17) 2_656 ?
Sr2 O2 2.414(17) . ?
Sr2 O4 2.457(14) 4_556 ?
Sr2 O4 2.457(14) 3 ?
Sr2 O3 2.538(13) 3 ?
Sr2 O3 2.538(13) 4_556 ?
Sr2 O1 2.661(16) . ?
Sr2 O1 2.661(16) 2_656 ?
Sr2 B1 2.91(3) . ?
Sr2 B1 2.91(3) 2_656 ?
Sr2 B2 3.10(2) 4_556 ?
Sr2 B2 3.10(2) 3 ?
Sr1 O1 2.412(14) . ?
Sr1 O10 2.541(13) 4_556 ?
Sr1 O5 2.558(13) 4_556 ?
Sr1 O9 2.622(12) 2_656 ?
Sr1 O7 2.698(12) 1_556 ?
Sr1 O6 2.714(15) 4_546 ?
Sr1 O8 2.751(13) 2_656 ?
Sr1 O4 2.758(15) 4_556 ?
Sr1 O8 2.777(14) 1_556 ?
Sr1 O6 2.826(14) 1_556 ?
Sr1 B5 3.12(2) 2_656 ?
Sr1 B3 3.16(2) 1_556 ?
O10 B5 1.33(3) . ?
O10 B4 1.51(3) 1_545 ?
O2 B1 1.36(3) . ?
O2 B3 1.48(2) . ?
O6 B4 1.43(3) . ?
O6 B3 1.47(3) . ?
O1 B1 1.34(3) . ?
O3 B1 1.40(3) . ?
O3 B2 1.53(3) . ?
O9 B5 1.35(2) . ?
O9 B2 1.51(3) 3_545 ?
O4 B2 1.45(3) . ?
O4 B4 1.49(3) 3_445 ?
O8 B5 1.40(3) . ?
O8 B3 1.50(3) . ?
O5 B2 1.44(3) . ?
O5 B3 1.44(2) . ?
B4 O7 1.45(2) . ?

loop_
_geom_angle_atom_site_label_1
_geom_angle_atom_site_label_2
_geom_angle_atom_site_label_3
_geom_angle
_geom_angle_site_symmetry_1
_geom_angle_site_symmetry_3
_geom_angle_publ_flag
O2 Sr2 O2 117.7(11) 2_656 . ?
O2 Sr2 O4 73.7(5) 2_656 4_556 ?
O2 Sr2 O4 126.7(5) . 4_556 ?
O2 Sr2 O4 126.7(5) 2_656 3 ?
O2 Sr2 O4 73.7(5) . 3 ?
O4 Sr2 O4 144.2(7) 4_556 3 ?
O2 Sr2 O3 94.4(6) 2_656 3 ?
O2 Sr2 O3 130.3(5) . 3 ?
O4 Sr2 O3 97.0(5) 4_556 3 ?
O4 Sr2 O3 56.6(5) 3 3 ?
O2 Sr2 O3 130.3(5) 2_656 4_556 ?
O2 Sr2 O3 94.4(6) . 4_556 ?
O4 Sr2 O3 56.6(5) 4_556 4_556 ?
O4 Sr2 O3 97.0(5) 3 4_556 ?
O3 Sr2 O3 91.4(6) 3 4_556 ?
O2 Sr2 O1 96.9(6) 2_656 . ?
O2 Sr2 O1 53.9(4) . . ?
O4 Sr2 O1 73.7(4) 4_556 . ?
O4 Sr2 O1 123.9(4) 3 . ?
O3 Sr2 O1 162.6(5) 3 . ?
O3 Sr2 O1 71.3(5) 4_556 . ?
O2 Sr2 O1 53.9(4) 2_656 2_656 ?
O2 Sr2 O1 96.9(6) . 2_656 ?
O4 Sr2 O1 123.9(4) 4_556 2_656 ?
O4 Sr2 O1 73.7(4) 3 2_656 ?
O3 Sr2 O1 71.3(5) 3 2_656 ?
O3 Sr2 O1 162.6(5) 4_556 2_656 ?
O1 Sr2 O1 126.1(8) . 2_656 ?
O2 Sr2 B1 114.4(7) 2_656 . ?
O2 Sr2 B1 27.7(6) . . ?
O4 Sr2 B1 99.1(6) 4_556 . ?
O4 Sr2 B1 97.1(6) 3 . ?
O3 Sr2 B1 150.0(6) 3 . ?
O3 Sr2 B1 76.8(6) 4_556 . ?
O1 Sr2 B1 27.4(6) . . ?
O1 Sr2 B1 118.3(6) 2_656 . ?
O2 Sr2 B1 27.7(6) 2_656 2_656 ?
O2 Sr2 B1 114.4(7) . 2_656 ?
O4 Sr2 B1 97.1(6) 4_556 2_656 ?
O4 Sr2 B1 99.1(6) 3 2_656 ?
O3 Sr2 B1 76.8(6) 3 2_656 ?
O3 Sr2 B1 150.0(6) 4_556 2_656 ?
O1 Sr2 B1 118.3(6) . 2_656 ?
O1 Sr2 B1 27.4(6) 2_656 2_656 ?
B1 Sr2 B1 125.6(10) . 2_656 ?
O2 Sr2 B2 100.9(6) 2_656 4_556 ?
O2 Sr2 B2 112.3(6) . 4_556 ?
O4 Sr2 B2 27.1(6) 4_556 4_556 ?
O4 Sr2 B2 123.6(6) 3 4_556 ?
O3 Sr2 B2 96.0(6) 3 4_556 ?
O3 Sr2 B2 29.5(5) 4_556 4_556 ?
O1 Sr2 B2 68.9(6) . 4_556 ?
O1 Sr2 B2 148.9(5) 2_656 4_556 ?
B1 Sr2 B2 87.2(7) . 4_556 ?
B1 Sr2 B2 123.4(7) 2_656 4_556 ?
O2 Sr2 B2 112.3(6) 2_656 3 ?
O2 Sr2 B2 100.9(6) . 3 ?
O4 Sr2 B2 123.6(6) 4_556 3 ?
O4 Sr2 B2 27.1(6) 3 3 ?
O3 Sr2 B2 29.5(5) 3 3 ?
O3 Sr2 B2 96.0(6) 4_556 3 ?
O1 Sr2 B2 148.9(5) . 3 ?
O1 Sr2 B2 68.9(6) 2_656 3 ?
B1 Sr2 B2 123.4(7) . 3 ?
B1 Sr2 B2 87.2(7) 2_656 3 ?
B2 Sr2 B2 113.5(10) 4_556 3 ?
O1 Sr1 O10 89.4(5) . 4_556 ?
O1 Sr1 O5 80.4(6) . 4_556 ?
O10 Sr1 O5 74.5(4) 4_556 4_556 ?
O1 Sr1 O9 77.5(5) . 2_656 ?
O10 Sr1 O9 118.3(4) 4_556 2_656 ?
O5 Sr1 O9 154.0(4) 4_556 2_656 ?
O1 Sr1 O7 123.3(4) . 1_556 ?
O10 Sr1 O7 125.4(4) 4_556 1_556 ?
O5 Sr1 O7 70.5(5) 4_556 1_556 ?
O9 Sr1 O7 111.4(4) 2_656 1_556 ?
O1 Sr1 O6 86.8(5) . 4_546 ?
O10 Sr1 O6 52.4(5) 4_556 4_546 ?
O5 Sr1 O6 125.4(4) 4_556 4_546 ?
O9 Sr1 O6 66.8(4) 2_656 4_546 ?
O7 Sr1 O6 149.5(4) 1_556 4_546 ?
O1 Sr1 O8 98.2(5) . 2_656 ?
O10 Sr1 O8 164.5(5) 4_556 2_656 ?
O5 Sr1 O8 120.0(4) 4_556 2_656 ?
O9 Sr1 O8 51.2(4) 2_656 2_656 ?
O7 Sr1 O8 60.8(4) 1_556 2_656 ?
O6 Sr1 O8 114.3(5) 4_546 2_656 ?
O1 Sr1 O4 72.7(5) . 4_556 ?
O10 Sr1 O4 126.1(5) 4_556 4_556 ?
O5 Sr1 O4 52.9(4) 4_556 4_556 ?
O9 Sr1 O4 106.9(4) 2_656 4_556 ?
O7 Sr1 O4 50.8(3) 1_556 4_556 ?
O6 Sr1 O4 159.4(4) 4_546 4_556 ?
O8 Sr1 O4 69.3(5) 2_656 4_556 ?
O1 Sr1 O8 157.9(5) . 1_556 ?
O10 Sr1 O8 105.7(5) 4_556 1_556 ?
O5 Sr1 O8 118.8(5) 4_556 1_556 ?
O9 Sr1 O8 81.1(5) 2_656 1_556 ?
O7 Sr1 O8 60.5(4) 1_556 1_556 ?
O6 Sr1 O8 89.9(4) 4_546 1_556 ?
O8 Sr1 O8 63.5(5) 2_656 1_556 ?
O4 Sr1 O8 108.9(4) 4_556 1_556 ?
O1 Sr1 O6 151.9(5) . 1_556 ?
O10 Sr1 O6 79.5(5) 4_556 1_556 ?
O5 Sr1 O6 71.8(5) 4_556 1_556 ?
O9 Sr1 O6 130.5(4) 2_656 1_556 ?
O7 Sr1 O6 50.5(3) 1_556 1_556 ?
O6 Sr1 O6 105.9(3) 4_546 1_556 ?
O8 Sr1 O6 99.1(4) 2_656 1_556 ?
O4 Sr1 O6 93.1(4) 4_556 1_556 ?
O8 Sr1 O6 49.4(5) 1_556 1_556 ?
O1 Sr1 B5 91.9(5) . 2_656 ?
O10 Sr1 B5 140.3(5) 4_556 2_656 ?
O5 Sr1 B5 144.7(5) 4_556 2_656 ?
O9 Sr1 B5 25.4(5) 2_656 2_656 ?
O7 Sr1 B5 86.0(5) 1_556 2_656 ?
O6 Sr1 B5 88.1(5) 4_546 2_656 ?
O8 Sr1 B5 26.7(5) 2_656 2_656 ?
O4 Sr1 B5 91.8(5) 4_556 2_656 ?
O8 Sr1 B5 66.2(5) 1_556 2_656 ?
O6 Sr1 B5 113.1(5) 1_556 2_656 ?
O1 Sr1 B3 170.3(5) . 1_556 ?
O10 Sr1 B3 81.1(5) 4_556 1_556 ?
O5 Sr1 B3 98.9(6) 4_556 1_556 ?
O9 Sr1 B3 105.3(6) 2_656 1_556 ?
O7 Sr1 B3 64.9(4) 1_556 1_556 ?
O6 Sr1 B3 85.8(5) 4_546 1_556 ?
O8 Sr1 B3 90.6(5) 2_656 1_556 ?
O4 Sr1 B3 114.7(5) 4_556 1_556 ?
O8 Sr1 B3 28.4(5) 1_556 1_556 ?
O6 Sr1 B3 27.7(5) 1_556 1_556 ?
B5 Sr1 B3 94.1(5) 2_656 1_556 ?
B5 O10 B4 121.1(15) . 1_545 ?
B5 O10 La1 126.0(12) . 4_546 ?
B4 O10 La1 104.0(11) 1_545 4_546 ?
B1 O2 B3 125.0(18) . . ?
B1 O2 Sr2 96.9(15) . . ?
B3 O2 Sr2 131.2(13) . . ?
B4 O6 B3 120.7(17) . . ?
B4 O6 La1 98.9(13) . 4_556 ?
B3 O6 La1 132.7(12) . 4_556 ?
B4 O6 La1 96.5(11) . 1_554 ?
B3 O6 La1 88.8(11) . 1_554 ?
La1 O6 La1 112.9(5) 4_556 1_554 ?
B1 O1 Sr1 168.3(18) . . ?
B1 O1 Sr2 86.6(16) . . ?
Sr1 O1 Sr2 105.0(5) . . ?
B1 O3 B2 118.1(17) . . ?
B1 O3 Sr2 129.9(15) . 3_445 ?
B2 O3 Sr2 96.1(11) . 3_445 ?
B5 O9 B2 121.4(16) . 3_545 ?
B5 O9 La1 98.2(12) . 2_656 ?
B2 O9 La1 137.8(11) 3_545 2_656 ?
B2 O4 B4 120.5(15) . 3_445 ?
B2 O4 Sr2 102.1(11) . 3_445 ?
B4 O4 Sr2 133.1(12) 3_445 3_445 ?
B2 O4 La1 92.4(12) . 4_546 ?
B4 O4 La1 96.1(12) 3_445 4_546 ?
Sr2 O4 La1 101.0(5) 3_445 4_546 ?
B5 O8 B3 124.5(15) . . ?
B5 O8 La1 91.3(11) . 2_656 ?
B3 O8 La1 124.9(12) . 2_656 ?
B5 O8 La1 121.4(12) . 1_554 ?
B3 O8 La1 90.0(11) . 1_554 ?
La1 O8 La1 106.2(4) 2_656 1_554 ?
B2 O5 B3 115.7(15) . . ?
B2 O5 La1 101.2(12) . 4_546 ?
B3 O5 La1 135.0(12) . 4_546 ?
O10 B5 O9 123.4(18) . . ?
O10 B5 O8 120.9(17) . . ?
O9 B5 O8 115.4(18) . . ?
O10 B5 La1 157.2(12) . 2_656 ?
O9 B5 La1 56.4(9) . 2_656 ?
O8 B5 La1 62.0(10) . 2_656 ?
O5 B3 O6 113.5(17) . . ?
O5 B3 O2 107.7(16) . . ?
O6 B3 O2 113.1(19) . . ?
O5 B3 O8 109.3(17) . . ?
O6 B3 O8 104.2(15) . . ?
O2 B3 O8 108.8(17) . . ?
O5 B3 La1 85.0(11) . 1_554 ?
O6 B3 La1 63.5(9) . 1_554 ?
O2 B3 La1 166.5(12) . 1_554 ?
O8 B3 La1 61.6(9) . 1_554 ?
O1 B1 O2 118(2) . . ?
O1 B1 O3 123(2) . . ?
O2 B1 O3 119(2) . . ?
O1 B1 Sr2 66.0(15) . . ?
O2 B1 Sr2 55.5(13) . . ?
O3 B1 Sr2 158.9(18) . . ?
O5 B2 O4 110.9(19) . . ?
O5 B2 O9 112.6(15) . 3_455 ?
O4 B2 O9 109.2(15) . 3_455 ?
O5 B2 O3 111.2(16) . . ?
O4 B2 O3 105.1(15) . . ?
O9 B2 O3 107.5(18) 3_455 . ?
O5 B2 Sr2 123.4(13) . 3_445 ?
O4 B2 Sr2 50.8(9) . 3_445 ?
O9 B2 Sr2 124.0(13) 3_455 3_445 ?
O3 B2 Sr2 54.5(8) . 3_445 ?
O5 B2 La1 52.4(10) . 4_546 ?
O4 B2 La1 60.5(11) . 4_546 ?
O9 B2 La1 141.9(13) 3_455 4_546 ?
O3 B2 La1 110.6(12) . 4_546 ?
Sr2 B2 La1 80.0(5) 3_445 4_546 ?
O6 B4 O7 109.9(17) . . ?
O6 B4 O4 116.8(17) . 3 ?
O7 B4 O4 105.6(15) . 3 ?
O6 B4 O10 104.6(18) . 1_565 ?
O7 B4 O10 114.3(17) . 1_565 ?
O4 B4 O10 105.9(16) 3 1_565 ?
B4 O7 B4 143(2) 2_655 . ?
B4 O7 La1 99.5(10) 2_655 1_554 ?
B4 O7 La1 101.4(9) . 1_554 ?
B4 O7 La1 101.4(9) 2_655 2_656 ?
B4 O7 La1 99.5(10) . 2_656 ?
La1 O7 La1 110.1(7) 1_554 2_656 ?

_refine_diff_density_max         3.597
_refine_diff_density_min         -1.306
_refine_diff_density_rms         0.526

_shelx_res_file                  
;
TITL 033_a.res in C2
    033.res
    created by SHELXL-2018/3 at 11:02:04 on 26-May-2020
REM Old TITL 033 in C2 #5
REM SHELXT solution in C2: R1 0.074, Rweak 0.048, Alpha 0.005
REM <I/s> 0.000 for 0 systematic absences, Orientation as input
REM Flack x = -0.156 ( 0.035 ) from 626 Parsons' quotients
REM Formula found by SHELXT: B4 O19 La3 C4
CELL 0.71073 11.1298 6.5751 9.2495 90 91.381 90
ZERR 2 0.0004 0.0002 0.0003 0 0.003 0
LATT -7
SYMM -X,+Y,-Z
SFAC B La O Sr
UNIT 20 4 38 2
ISOR
EADP Sr2 La2
EADP Sr1 La1
EXYZ Sr2 La2
EXYZ Sr1 La1

L.S. 20 0 0
PLAN  10
list 4
fmap 2 53
acta
TWIN -1 0 0 0 -1 0 0 0 -1 2
OMIT 4 0 1
OMIT 2 0 5
OMIT 1 1 1
OMIT 2 0 3
OMIT 1 1 0
OMIT 1 -1 1
REM <olex2.extras>
REM <HklSrc "%.\\033.hkl">
REM </olex2.extras>

WGHT    0.134100    2.396200
BASF   0.25554
FVAR       0.28256
SR2   4    0.500000    0.826753    0.500000    10.35000    0.02138    0.02542 =
         0.02250    0.00000   -0.00046    0.00000
LA2   2    0.500000    0.826753    0.500000    10.15000    0.02138    0.02542 =
         0.02250    0.00000   -0.00046    0.00000
LA1   2    0.335735    0.643013    0.860729    10.85075    0.03853    0.03589 =
         0.03632    0.00034    0.00038    0.00091
SR1   4    0.335735    0.643013    0.860729    10.15000    0.03853    0.03589 =
         0.03632    0.00034    0.00038    0.00091
O10   3    0.390394    0.166108    0.111364    11.00000    0.02479    0.03756 =
         0.03792    0.00025   -0.00014   -0.00192
O2    3    0.352879    0.636753    0.359583    11.00000    0.03398    0.03549 =
         0.03486    0.00336   -0.00372   -0.00950
O6    3    0.324683    0.832453    0.134376    11.00000    0.05289    0.03005 =
         0.03182    0.00157    0.00482    0.00999
O1    3    0.306240    0.643370    0.601503    11.00000    0.04003    0.04435 =
         0.04002   -0.00392   -0.00933    0.00108
O3    3    0.148346    0.596421    0.422360    11.00000    0.01988    0.03804 =
         0.04375    0.00170    0.00152   -0.00008
O9    3    0.571923    0.292679    0.214218    11.00000    0.02028    0.02842 =
         0.04747    0.00428    0.00516   -0.00865
O4    3    0.018058    0.441647    0.248651    11.00000    0.03188    0.03330 =
         0.03590    0.00354   -0.00111    0.00400
O8    3    0.427624    0.521913    0.128915    11.00000    0.02617    0.03472 =
         0.03611    0.00325    0.00294   -0.00422
O5    3    0.216952    0.517943    0.178587    11.00000    0.02064    0.02435 =
         0.04706   -0.00603   -0.00442   -0.00689
B5    1    0.460601    0.319364    0.155970    11.00000    0.02615    0.02803 =
         0.02813    0.00515    0.01034    0.00475
B3    1    0.326776    0.630512    0.201502    11.00000    0.01939    0.03826 =
         0.04234   -0.00353    0.00093   -0.00607
B1    1    0.268812    0.624592    0.463481    11.00000    0.05611    0.02949 =
         0.04344   -0.00309    0.00804    0.00945
B2    1    0.116259    0.585459    0.260302    11.00000    0.03478    0.04607 =
         0.03304    0.01746   -0.00313    0.00249
B4    1    0.432420    0.948216    0.122889    11.00000    0.03707    0.02763 =
         0.03080   -0.00087    0.00085   -0.00745
O7    3    0.500000    0.878189    0.000000    10.50000    0.03382    0.03365 =
         0.03904    0.00000   -0.00308    0.00000
HKLF 4




REM  033_a.res in C2
REM wR2 = 0.1583, GooF = S = 1.150, Restrained GooF = 1.100 for all data
REM R1 = 0.0612 for 1377 Fo > 4sig(Fo) and 0.0612 for all 1378 data
REM 147 parameters refined using 115 restraints

END

WGHT      0.1343      2.3599

REM Highest difference peak  3.597,  deepest hole -1.306,  1-sigma level  0.526
Q1    1   0.2802  0.5840  0.8248  11.00000  0.05    2.60
Q2    1   0.3922  0.6689  0.9139  11.00000  0.05    2.30
Q3    1   0.3103  0.6569  0.9385  11.00000  0.05    2.24
Q4    1   0.2829  0.7153  0.8359  11.00000  0.05    2.19
Q5    1   0.3772  0.5636  0.8951  11.00000  0.05    2.06
Q6    1   0.3804  0.6345  0.7958  11.00000  0.05    1.95
Q7    1   0.4811  0.4250  0.4884  11.00000  0.05    1.05
Q8    1   0.3238  0.8070  0.1646  11.00000  0.05    0.99
Q9    1   0.1554  0.5041  0.1964  11.00000  0.05    0.99
Q10   1   0.1590  0.6521  0.5137  11.00000  0.05    0.96
;
_shelx_res_checksum              12631

_shelx_hkl_file                  
;
   0  -8   0   48.96    4.26
   0  -8   0   42.79    5.23
   0  -8   1  117.72    7.18
   0  -8  -1  114.04    8.62
   0  -8  -1  115.19    6.53
   0  -8   1  108.64    8.40
   0  -8  -2   33.25    3.16
   0  -8   2   31.50    3.79
   0  -8   2   27.53    4.27
   0  -6   0 1015.40   33.36
   0  -6   0  947.27   35.01
   0  -6   0  995.19   36.15
   0  -6   1   16.79    3.17
   0  -6  -1   12.34    3.16
   0  -6   1   20.13    3.39
   0  -6  -1   15.45    2.69
   0  -6   1   19.60    4.20
   0  -6  -1   15.49    3.94
   0  -6   1   11.59    3.00
   0  -6  -1   11.03    2.49
   0  -6   2   42.78    4.64
   0  -6  -2   35.94    5.10
   0  -6   2   37.80    4.72
   0  -6   2   41.11    5.45
   0  -6  -2   41.73    3.84
   0  -6  -2   39.32    4.36
   0  -6  -2   40.12    5.52
   0  -6  -3  521.59   20.72
   0  -6  -3  514.00   22.58
   0  -6   3  509.20   22.71
   0  -6   3  603.47   20.73
   0  -6  -3  592.61   18.67
   0  -6   3  526.34   23.16
   0  -6   3  576.34   22.38
   0  -6  -3  524.25   23.52
   0  -6  -4  124.89    9.78
   0  -6   4  129.62    9.48
   0  -6   4  145.26    7.89
   0  -6  -4  124.17    9.42
   0  -6   4  135.42    9.19
   0  -6   4  143.00    9.92
   0  -6  -4  123.35    8.28
   0  -6   5  101.91    8.28
   0  -6  -5   99.49    4.42
   0  -6   5  120.48    8.39
   0  -6  -5  104.86    8.90
   0  -6  -5  105.34    8.52
   0  -6   5  119.60    6.77
   0  -6   6  167.22    8.25
   0  -6   6  192.99    8.75
   0  -6  -6  160.89   10.75
   0  -6   6  190.59   10.65
   0  -6  -6  163.16   11.33
   0  -6   6  181.07   10.93
   0  -6   7   30.35    4.10
   0  -6  -7   22.16    4.07
   0  -6   7   30.08    4.13
   0  -6  -7   24.48    2.62
   0  -6  -7   24.79    4.49
   0  -6   7   28.73    2.86
   0  -4   0 1927.28   58.08
   0  -4   0 1824.70   56.50
   0  -4  -1  404.81   19.00
   0  -4  -1  396.90   19.43
   0  -4   1  438.24   19.68
   0  -4   1  417.34   17.93
   0  -4  -1  395.18   16.71
   0  -4  -2  190.68    9.30
   0  -4  -2  187.51   12.37
   0  -4   2  191.53   10.51
   0  -4   2  205.75   12.95
   0  -4  -2  187.11   12.08
   0  -4  -3  442.57   19.34
   0  -4  -3  420.07   20.78
   0  -4   3  479.86   21.61
   0  -4  -3  478.51   15.66
   0  -4  -3  438.41   20.39
   0  -4  -3  468.56   20.91
   0  -4   3  472.13   18.11
   0  -4   3  412.04   20.52
   0  -4  -3  427.76   20.46
   0  -4   3  397.48   20.47
   0  -4   4  746.53   28.28
   0  -4  -4  642.14   27.39
   0  -4   4  703.11   23.22
   0  -4   4  606.88   26.44
   0  -4  -4  706.64   27.39
   0  -4   4  611.91   26.44
   0  -4  -4  640.21   26.35
   0  -4  -4  619.49   25.42
   0  -4  -4  652.76   26.71
   0  -4   5   64.69    6.98
   0  -4   5   61.43    4.78
   0  -4   5   59.75    5.56
   0  -4  -5   55.04    6.39
   0  -4  -5   58.59    6.43
   0  -4  -5   67.24    7.12
   0  -4   5   60.87    6.72
   0  -4  -5   58.07    6.31
   0  -4  -5   62.35    6.52
   0  -4   6  153.50    7.82
   0  -4  -6  169.39   11.23
   0  -4   6  159.70    9.40
   0  -4  -6  142.86   10.43
   0  -4  -6  132.96    9.88
   0  -4  -6  146.91   10.22
   0  -4   6  138.13    9.86
   0  -4  -6  145.90   10.10
   0  -4  -7  249.58   14.63
   0  -4   7  252.45   13.82
   0  -4   7  308.90   13.79
   0  -4   7  269.07   14.05
   0  -4  -7  304.33   15.55
   0  -4   7  294.44   11.31
   0  -4  -7  251.38   13.86
   0  -4   8  167.91    9.72
   0  -4   8  162.73    9.88
   0  -4   8  169.50    7.76
   0  -4  -8  162.74   11.05
   0  -4   8  167.33    7.57
   0  -4  -8  151.72    9.98
   0  -4   8  155.67    9.92
   0  -4   9   52.01    5.13
   0  -4   9   54.78    5.39
   0  -4   9   45.86    3.61
   0  -4  -9   49.05    5.88
   0  -4  -9   46.39    5.24
   0  -4   9   45.42    4.75
   0  -4   9   50.28    3.64
   0  -4  10   70.84    6.26
   0  -4 -10   70.81    6.86
   0  -4 -10   68.52    6.18
   0  -4  10   90.04    6.62
   0  -4  10   68.59    5.58
   0  -2   0 3336.37   96.92
   0  -2   0 3330.78   98.17
   0  -2  -1 1023.22   37.08
   0  -2  -1  958.51   36.82
   0  -2  -1  990.82   32.71
   0  -2  -2  708.74   21.57
   0  -2   2  663.67   25.73
   0  -2  -2  638.69   27.03
   0  -2  -2  700.56   28.62
   0  -2  -3  477.13   21.99
   0  -2  -3  421.57   19.90
   0  -2   3  425.66   17.84
   0  -2   3  457.21   19.79
   0  -2   4 3234.78   92.75
   0  -2   4 3288.61   96.02
   0  -2  -4 3461.72   98.72
   0  -2  -4 3255.13   96.28
   0  -2   5  122.33    9.07
   0  -2  -5  126.75    9.22
   0  -2  -5  124.06    9.88
   0  -2   5  114.19    7.34
   0  -2  -6  109.57    8.40
   0  -2  -6  104.08    8.87
   0  -2  -6  100.76    9.19
   0  -2  -6   90.87    8.64
   0  -2   6  101.10    8.17
   0  -2  -6   98.55    8.22
   0  -2   6  111.34    7.04
   0  -2   6  116.46    9.01
   0  -2  -7  669.05   26.28
   0  -2   7  771.61   26.82
   0  -2  -7  673.95   27.53
   0  -2  -7  677.38   26.13
   0  -2  -7  701.74   27.99
   0  -2   7  704.65   26.58
   0  -2  -7  582.83   26.79
   0  -2   8   71.90    6.09
   0  -2  -8   81.04    7.56
   0  -2  -8   57.16    5.93
   0  -2   8   58.23    5.98
   0  -2  -8   52.88    6.17
   0  -2  -8   61.29    6.06
   0  -2  -8   61.57    6.88
   0  -2  -8   48.77    6.01
   0  -2  -9   43.33    5.54
   0  -2   9   40.00    4.89
   0  -2   9   42.78    4.44
   0  -2  -9   41.28    5.47
   0  -2  -9   40.83    4.83
   0  -2 -10  163.62    9.82
   0  -2 -10  158.56   10.75
   0  -2  10  169.28    8.78
   0  -2  10  172.63    8.35
   0  -2  10  194.35   10.63
   0  -2 -11   43.03    4.70
   0  -2 -11   47.22    5.56
   0  -2  11   44.04    3.94
   0  -2  11   47.17    4.93
   0  -2  11   50.88    3.90
   0   0   2    8.89    2.61
   0   0  -2    4.20    2.60
   0   0   2    5.05    2.25
   0   0   2    9.91    2.69
   0   0  -2   13.72    3.23
   0   0  -3 9814.65  252.59
   0   0   3 9203.49  252.84
   0   0  -3 9999.00  256.07
   0   0   3 9637.38  252.76
   0   0   4 1645.43   49.10
   0   0  -4 1479.37   52.22
   0   0   4 1396.73   49.97
   0   0   4 1533.92   50.34
   0   0  -4 1472.21   44.39
   0   0  -4 1539.18   50.12
   0   0  -5  410.96   18.96
   0   0   5  360.80   17.25
   0   0  -5  411.23   14.84
   0   0  -5  365.38   18.36
   0   0   5  387.51   18.96
   0   0   5  430.97   17.89
   0   0   5  408.86   19.38
   0   0  -5  417.34   21.04
   0   0   6  696.56   27.85
   0   0   6  735.05   28.22
   0   0  -6  753.82   28.02
   0   0  -6  728.59   30.03
   0   0   6  674.40   26.06
   0   0  -6  712.68   23.02
   0   0   6  762.18   25.96
   0   0   7  271.49   14.45
   0   0  -7  270.55   14.37
   0   0   7  276.48   12.29
   0   0  -7  271.50   14.15
   0   0  -7  263.63   15.04
   0   0  -7  307.77   16.73
   0   0  -7  267.62   10.38
   0   0   7  288.93   14.78
   0   0  -7  256.10   14.19
   0   0   8 1012.11   34.44
   0   0   8  970.39   34.18
   0   0  -8  987.53   34.32
   0   0   8  925.78   31.65
   0   0   8  952.39   30.61
   0   0  -8 1033.29   34.07
   0   0  -8  946.34   35.19
   0   0  -8 1061.40   37.27
   0   0  -8  938.83   34.09
   0   0  -9   42.75    5.43
   0   0   9   46.82    5.12
   0   0   9   44.08    4.33
   0   0   9   41.44    3.72
   0   0   9   46.95    5.19
   0   0  -9   34.57    4.65
   0   0  -9   43.99    5.15
   0   0 -10   17.27    3.37
   0   0  10   13.19    2.89
   0   0  10   17.67    3.18
   0   0  10   15.74    2.57
   0   0 -10   14.27    3.21
   0   0  10   14.10    2.14
   0   0 -10   13.70    3.34
   0   0  11  326.93   14.42
   0   0  11  308.26   14.16
   0   0  11  289.84   11.03
   0   0  11  288.57   11.80
   0   0 -11  288.50   13.84
   0   0 -11  298.95   15.21
   0   2   0 3105.99   92.56
   0   2   0 3053.38   89.77
   0   2   0 3121.83   93.40
   0   2   0 3126.40   93.54
   0   2  -1  885.69   32.38
   0   2   1  950.28   33.52
   0   2  -1  937.28   35.07
   0   2  -1  942.21   36.22
   0   2  -1  945.04   36.44
   0   2   1  939.40   35.06
   0   2   1  979.10   34.78
   0   2   2  591.29   26.40
   0   2   2  655.25   25.85
   0   2   2  658.61   26.21
   0   2  -2  636.02   28.33
   0   2  -2  669.44   28.97
   0   2  -3  472.31   24.32
   0   2  -3  520.23   25.16
   0   2   3  484.35   21.24
   0   2   3  510.47   21.25
   0   2  -3  505.35   24.62
   0   2   3  481.17   21.06
   0   2   4 3559.79  104.31
   0   2   4 3637.41  103.98
   0   2   4 3618.69  104.93
   0   2  -4 3660.86  109.51
   0   2  -4 3671.10  110.35
   0   2  -5  149.94   11.80
   0   2   5  139.45    9.68
   0   2  -5  133.90   11.82
   0   2   5  137.92    9.24
   0   2   5  136.31    9.33
   0   2   6  136.22    9.33
   0   2  -6  119.46   11.06
   0   2   6  122.78    8.44
   0   2   6  127.96    9.07
   0   2   6  132.68    8.98
   0   2  -6  132.31    9.79
   0   2   6  114.62    8.86
   0   2  -6  125.49   10.72
   0   2  -7  700.76   29.35
   0   2  -7  701.45   27.46
   0   2   7  638.82   25.72
   0   2   7  724.59   25.75
   0   2   7  732.72   27.08
   0   2  -7  701.04   28.05
   0   2  -7  739.68   30.76
   0   2  -8   77.41    8.16
   0   2  -8   62.08    6.54
   0   2   8   67.01    6.11
   0   2   8   73.59    6.09
   0   2  -8   73.37    6.96
   0   2  -8   75.44    8.42
   0   2   8   68.12    6.45
   0   2  -9   42.29    4.28
   0   2   9   41.96    4.95
   0   2  -9   38.59    5.04
   0   2   9   42.56    4.56
   0   2   9   41.79    4.39
   0   2   9   36.64    4.47
   0   2 -10  167.95   10.50
   0   2  10  169.85    9.98
   0   2  10  166.83    9.07
   0   2  10  165.14    9.84
   0   2 -10  169.74   11.21
   0   2 -11   54.68    5.68
   0   2 -11   52.81    6.01
   0   2  11   56.19    5.32
   0   2  11   53.82    5.24
   0   2  11   58.65    4.79
   0   4   0 1923.49   61.16
   0   4   0 1802.02   60.05
   0   4   0 1919.77   61.94
   0   4   0 1962.88   62.77
   0   4   0 1988.87   58.94
   0   4  -1  472.61   23.00
   0   4   1  504.28   20.56
   0   4   1  507.36   22.73
   0   4  -1  476.83   19.52
   0   4  -1  464.83   19.80
   0   4  -1  504.37   23.09
   0   4  -1  501.19   22.38
   0   4   2  237.15   13.81
   0   4   2  221.41   12.89
   0   4  -2  225.16   12.34
   0   4   2  245.76   13.08
   0   4  -2  243.59   14.94
   0   4  -2  228.95   14.78
   0   4  -2  240.63   14.28
   0   4  -3  447.99   21.97
   0   4  -3  422.21   20.03
   0   4   3  431.08   19.17
   0   4   3  428.61   18.22
   0   4   3  428.98   18.75
   0   4   3  388.65   19.19
   0   4  -3  434.66   21.15
   0   4  -3  432.45   18.72
   0   4  -4  759.37   31.42
   0   4  -4  783.10   30.95
   0   4  -4  669.81   26.69
   0   4   4  747.62   27.15
   0   4   4  758.52   26.69
   0   4   4  728.22   27.53
   0   4  -5   72.76    6.91
   0   4   5   60.66    6.50
   0   4  -5   54.77    5.88
   0   4   5   75.05    6.45
   0   4   5   70.28    6.47
   0   4  -5   73.90    8.08
   0   4   5   76.98    6.43
   0   4  -5   82.94    8.68
   0   4   6  145.25    9.08
   0   4  -6  141.69   10.03
   0   4  -6  159.02   11.94
   0   4   6  146.67    9.05
   0   4  -6  140.65    9.54
   0   4   6  142.41    9.31
   0   4  -6  152.82   11.97
   0   4   6  141.36    9.81
   0   4   7  268.60   14.17
   0   4  -7  275.35   14.32
   0   4  -7  300.98   17.21
   0   4   7  311.36   13.81
   0   4   7  294.07   14.14
   0   4   8  183.62   10.53
   0   4   8  180.35   10.71
   0   4   8  211.95   11.02
   0   4  -8  191.47   13.37
   0   4   9   56.44    5.44
   0   4  -9   48.46    6.95
   0   4   9   58.75    5.49
   0   4 -10   86.12    8.62
   0   4 -10   76.84    7.12
   0   4  10   77.32    6.10
   0   4  10   94.29    6.79
   0   6   0 1125.85   39.42
   0   6   0 1166.47   38.77
   0   6   0 1044.49   37.51
   0   6   0 1043.84   34.83
   0   6   0 1148.83   36.11
   0   6  -1   26.56    4.59
   0   6  -1   23.52    4.62
   0   6  -1   31.33    3.81
   0   6   1   42.21    5.13
   0   6   1   28.22    4.72
   0   6  -1   35.53    4.23
   0   6   1   18.66    3.81
   0   6   1   30.47    4.06
   0   6   1   29.70    4.31
   0   6  -1   30.34    4.71
   0   6   2   47.21    5.71
   0   6   2   51.83    5.33
   0   6  -2   64.76    7.30
   0   6   2   62.75    5.82
   0   6  -2   55.39    5.15
   0   6   2   50.02    5.92
   0   6  -2   49.98    5.10
   0   6   3  673.97   24.19
   0   6  -3  692.45   28.07
   0   6   3  577.49   24.82
   0   6  -3  617.52   23.52
   0   6  -3  670.44   24.04
   0   6   3  706.67   24.80
   0   6  -4  180.50   10.19
   0   6  -4  194.68   10.54
   0   6   4  178.84   10.69
   0   6  -4  190.40   13.04
   0   6  -5  124.51    8.35
   0   6   5  138.22    8.93
   0   6  -5  140.04   11.20
   0   6  -5  135.27    8.67
   0   6   6  232.20   11.89
   0   6   6  204.86   12.11
   0   6  -6  233.67   14.50
   0   6  -6  249.86   12.43
   0   6  -7   39.57    6.05
   0   6   7   40.61    4.56
   0   6   7   34.31    4.67
   0   6  -7   37.23    4.73
   0   8   0   69.55    6.79
   0   8   0   61.95    5.20
   0   8   0   60.56    4.77
   0   8  -1  152.69    8.23
   0   8  -1  159.21   10.81
   0   8   1  168.67    8.95
   0   8   1  172.56   10.57
   0   8   1  145.53    7.77
   0   8  -1  169.89    8.89
   0   8   2   37.94    4.85
   0   8  -2   52.93    6.25
   0   8  -2   50.88    4.58
   0   8   2   48.01    4.59
   1  -7  -6   63.03    6.67
  -1  -7   6   80.01    6.24
   1  -7  -6   72.81    6.82
  -1  -7   6   66.08    4.90
  -1  -7   6   76.25    6.60
  -1  -7   5   96.32    7.81
   1  -7  -5  105.00    8.20
   1  -7  -5   79.73    7.57
  -1  -7   5   91.81    7.00
  -1  -7   5   90.93    7.57
  -1  -7   4  128.98    9.16
  -1  -7   4  121.42    8.15
   1  -7  -4  108.91    8.88
  -1  -7   4  119.19    8.93
   1  -7  -4  117.43    8.78
   1  -7  -3   35.93    4.88
  -1  -7   3   35.81    4.40
  -1  -7   3   28.95    4.66
   1  -7  -3   35.56    3.91
  -1  -7   3   29.95    4.61
   1  -7  -3   34.85    4.95
  -1  -7   2   65.39    5.62
   1  -7  -2   52.84    4.57
   1  -7  -2   47.80    5.71
  -1  -7   2   53.04    6.08
   1  -7  -2   53.51    4.31
  -1  -7   1  221.63   10.74
   1  -7  -1  196.11    9.52
   1  -7  -1  207.55    9.81
  -1  -7   1  190.46   11.95
  -1  -7   0  108.34    6.85
  -1  -7   0  100.92    8.29
   1  -7   0  100.55    6.80
   1  -7   0   87.81    7.58
  -1  -7  -1   55.56    4.52
   1  -7   1   45.18    5.42
  -1  -7  -1   49.52    4.70
   1  -7   1   55.82    5.07
  -1  -7  -2  264.14   10.58
   1  -7   2  231.50   12.94
  -1  -7  -2  224.60   13.51
   1  -7   2  262.45   12.43
  -1  -7  -3  139.25    6.59
  -1  -7  -3  142.11   10.16
   1  -7   3  150.12    9.06
   1  -7   3  137.03    9.33
   1  -7   4   41.72    4.78
   1  -7   4   47.26    5.30
  -1  -7  -4   36.89    5.33
  -1  -7  -4   41.87    5.17
   1  -7   5  120.19    8.24
  -1  -7  -5  119.59    8.71
   1  -7   5  126.75    8.68
  -1  -7  -5  124.10    9.49
  -1  -7  -6   73.61    6.71
  -1  -5   9   10.69    2.53
  -1  -5   9   13.76    3.17
  -1  -5   9   11.21    2.49
  -1  -5   9   11.33    2.05
   1  -5  -9    8.68    2.73
   1  -5  -9   12.36    3.38
  -1  -5   8  296.96   12.89
  -1  -5   8  275.86   11.16
  -1  -5   8  301.72   11.34
  -1  -5   8  254.91   13.03
  -1  -5   8  273.62   13.69
   1  -5  -8  245.39   13.91
  -1  -5   7   26.34    3.44
  -1  -5   7   22.70    2.86
   1  -5  -7   22.28    4.16
  -1  -5   7   24.33    3.00
   1  -5  -7   23.48    4.39
  -1  -5   7   26.37    4.29
  -1  -5   6   23.22    3.13
   1  -5  -6   24.43    4.61
   1  -5  -6   21.73    3.85
  -1  -5   6   18.83    3.71
  -1  -5   6   30.06    3.37
  -1  -5   6   24.34    4.22
   1  -5  -6   30.41    4.69
  -1  -5   5  496.82   22.47
  -1  -5   5  518.66   19.81
   1  -5  -5  561.31   23.31
   1  -5  -5  494.14   22.48
   1  -5  -5  503.07   23.10
  -1  -5   5  527.65   22.55
  -1  -5   5  606.81   23.11
  -1  -5   5  588.89   19.89
   1  -5  -5  513.74   21.19
  -1  -5   4   52.87    6.25
  -1  -5   4   64.62    6.61
  -1  -5   4   60.15    5.00
   1  -5  -4   48.26    6.10
   1  -5  -4   44.82    5.94
   1  -5  -4   50.19    6.16
   1  -5  -4   42.54    4.96
   1  -5  -3   48.74    6.06
  -1  -5   3   52.15    6.37
   1  -5  -3   57.16    6.68
  -1  -5   3   55.01    6.07
   1  -5  -3   50.88    5.15
  -1  -5   3   60.66    6.43
  -1  -5   3   61.53    5.33
   1  -5  -3   51.20    6.13
   1  -5  -2  850.09   32.69
  -1  -5   2  949.65   30.66
   1  -5  -2  907.23   32.46
   1  -5  -2  827.80   29.49
  -1  -5   2  934.31   32.79
  -1  -5   2  841.93   32.12
   1  -5  -2  904.14   28.84
   1  -5  -2  848.20   33.31
  -1  -5   1  163.15   10.40
   1  -5  -1  146.68   10.58
  -1  -5   1  168.76    9.90
   1  -5  -1  145.59   10.94
   1  -5  -1  161.33    9.10
  -1  -5   1  163.69   10.77
   1  -5   0  293.62   15.71
  -1  -5   0  332.65   14.95
   1  -5   0  339.41   15.67
   1  -5   0  324.12   14.66
  -1  -5   0  285.56   13.96
  -1  -5   0  284.45   15.47
  -1  -5  -1  430.96   18.55
  -1  -5  -1  387.63   19.68
   1  -5   1  444.32   18.53
  -1  -5  -1  408.58   19.00
  -1  -5  -1  419.38   16.78
   1  -5   1  421.02   17.83
  -1  -5  -1  399.21   17.53
   1  -5   1  394.59   18.94
  -1  -5  -2  137.97    9.94
  -1  -5  -2  132.87   10.39
   1  -5   2  131.64    9.82
   1  -5   2  158.86    9.13
  -1  -5  -2  134.69    8.98
  -1  -5  -2  117.09    9.28
   1  -5   2  165.89   10.50
  -1  -5  -2  155.46   10.11
  -1  -5  -2  146.53    7.75
   1  -5   3  624.19   23.73
  -1  -5  -3  525.98   21.70
   1  -5   3  515.94   22.58
  -1  -5  -3  523.79   16.03
  -1  -5  -3  541.20   23.10
   1  -5   3  566.70   20.66
  -1  -5  -3  570.63   18.13
  -1  -5  -3  520.42   23.55
  -1  -5  -3  529.79   22.68
  -1  -5  -3  583.84   23.15
   1  -5   4   29.71    4.65
  -1  -5  -4   26.59    2.45
  -1  -5  -4   23.17    4.10
  -1  -5  -4   34.72    4.93
   1  -5   4   29.61    3.47
  -1  -5  -4   28.09    4.20
   1  -5   4   27.69    4.50
  -1  -5  -4   34.43    5.16
  -1  -5  -4   27.00    4.39
  -1  -5  -5   71.70    4.66
  -1  -5  -5   54.29    5.94
  -1  -5  -5   53.74    6.46
  -1  -5  -5   60.48    6.45
  -1  -5  -5   79.01    7.26
   1  -5   5   72.81    6.92
   1  -5   5   61.28    6.34
   1  -5   5   69.65    5.03
   1  -5   6  514.27   21.48
  -1  -5  -6  526.76   22.32
  -1  -5  -6  500.02   18.68
   1  -5   6  582.13   18.67
  -1  -5  -6  489.36   22.94
   1  -5   6  590.58   22.65
  -1  -5  -7   34.50    5.26
   1  -5   7   40.67    3.37
  -1  -5  -7   39.02    5.09
   1  -5   7   38.45    4.72
   1  -5   8    4.36    2.13
  -1  -5  -8    4.49    2.55
   1  -5   8    3.88    2.08
   1  -5   8    4.40    1.37
   1  -5   9  174.55    9.29
  -1  -5  -9  142.19   10.20
   1  -5   9  163.47    9.19
  -1  -5  -9  143.78    9.47
   1  -5   9  156.21    9.23
   1  -3 -10   17.14    3.31
  -1  -3  10   20.04    2.73
  -1  -3  10   24.74    3.69
  -1  -3  10   17.51    2.93
   1  -3 -10   15.84    3.60
  -1  -3   9  298.34   13.80
   1  -3  -9  238.98   13.30
  -1  -3   9  266.39   11.58
  -1  -3   9  291.41   13.15
   1  -3  -9  264.78   14.39
   1  -3  -8   89.81    7.67
  -1  -3   8  102.92    6.59
   1  -3  -8   98.59    8.34
  -1  -3   8  107.14    7.92
  -1  -3   8  119.09    8.14
   1  -3  -7   88.43    8.47
   1  -3  -7   67.77    6.98
  -1  -3   7   83.02    7.15
   1  -3  -7   75.45    7.27
  -1  -3   7   84.19    6.00
  -1  -3   7   94.80    7.31
   1  -3  -7   75.75    7.17
   1  -3  -6  486.73   21.65
  -1  -3   6  484.92   19.41
   1  -3  -6  485.91   22.30
   1  -3  -6  425.96   19.98
   1  -3  -6  405.73   19.92
   1  -3  -6  429.37   20.38
   1  -3  -5   99.49    8.73
   1  -3  -5  108.23    8.90
   1  -3  -5  112.79    9.79
   1  -3  -5  120.94    9.42
  -1  -3   5  121.52    8.31
   1  -3  -4 1082.23   39.55
   1  -3  -4 1034.73   38.83
   1  -3  -4 1223.68   41.70
  -1  -3   4 1302.49   42.28
  -1  -3   4 1096.46   36.90
  -1  -3   4 1184.16   37.38
   1  -3  -4 1066.22   38.87
   1  -3  -4 1039.71   38.92
   1  -3  -3  469.64   22.22
   1  -3  -3  447.01   20.88
  -1  -3   3  487.22   22.58
  -1  -3   3  429.39   18.15
   1  -3  -2  134.38    9.10
   1  -3  -2  137.65    7.85
  -1  -3   2  156.00   11.72
   1  -3  -2  140.13   10.92
   1  -3  -1 3411.48   93.32
   1  -3  -1 3373.48   97.55
   1  -3  -1 3200.85   93.02
   1  -3   0  398.75   17.91
  -1  -3   0  405.97   18.70
  -1  -3   0  374.38   17.70
  -1  -3   0  394.25   18.02
   1  -3   0  348.73   15.41
   1  -3   1  259.68   14.83
   1  -3   1  222.96   13.92
  -1  -3  -1  265.50   14.46
  -1  -3  -1  293.03   13.52
   1  -3   1  262.45   13.41
  -1  -3  -1  252.92    9.12
  -1  -3  -1  232.54   14.19
  -1  -3  -1  244.94   13.80
  -1  -3  -2 5159.55  139.29
  -1  -3  -2 4864.80  131.35
  -1  -3  -2 4947.70  138.57
   1  -3   2 4828.14  138.79
  -1  -3  -2 4734.49  132.57
   1  -3   2 4996.27  140.67
   1  -3   2 4787.46  134.63
  -1  -3  -3  238.98   14.14
  -1  -3  -3  228.54   13.46
  -1  -3  -3  240.06    8.55
   1  -3   3  255.60   15.68
   1  -3   3  246.19   11.37
   1  -3   4  198.42   13.02
   1  -3   4  146.14    7.80
  -1  -3  -4  188.45   11.96
  -1  -3  -4  163.81   10.62
   1  -3   4  163.87   10.26
  -1  -3  -4  145.64   10.62
   1  -3   4  154.08    8.06
  -1  -3  -4  158.48   11.24
  -1  -3  -5 1271.24   43.32
   1  -3   5 1291.24   44.05
   1  -3   5 1380.06   43.42
  -1  -3  -5 1380.75   45.10
   1  -3   5 1282.50   38.83
  -1  -3  -5 1321.50   45.24
   1  -3   5 1325.28   39.21
  -1  -3  -6  154.91   10.11
  -1  -3  -6  147.34   10.90
   1  -3   6  182.41   11.47
   1  -3   6  158.63    7.60
   1  -3   6  152.43   10.40
   1  -3   6  157.73   10.08
  -1  -3  -6  174.47   11.35
   1  -3   6  172.54    7.72
   1  -3   7  355.60   17.07
   1  -3   7  368.04   13.39
  -1  -3  -7  329.83   16.16
   1  -3   7  396.45   17.26
  -1  -3  -7  349.91   17.88
   1  -3   7  415.54   17.77
  -1  -3  -7  386.11   17.85
   1  -3   8  176.75   10.99
   1  -3   8  213.44   11.50
   1  -3   8  196.73    8.35
  -1  -3  -8  208.66   12.83
   1  -3   8  219.21   11.40
  -1  -3  -8  173.17   11.71
  -1  -3  -8  183.25   10.78
   1  -3   9   19.78    3.60
  -1  -3  -9   16.07    3.65
   1  -3   9   19.23    3.24
   1  -3   9   27.28    3.88
  -1  -3  -9   18.32    3.28
   1  -3  10  353.67   15.16
  -1  -3 -10  282.15   15.40
   1  -3  10  333.00   13.67
  -1  -3 -10  291.23   13.83
   1  -1 -11   90.70    7.69
  -1  -1  11   89.20    5.49
  -1  -1  11   94.91    6.01
  -1  -1  11  106.38    7.44
  -1  -1  11  103.26    7.40
   1  -1 -11   84.15    6.54
  -1  -1  10   49.46    4.24
   1  -1 -10   47.05    4.89
  -1  -1  10   46.62    4.48
  -1  -1  10   51.32    5.33
   1  -1 -10   42.72    5.46
  -1  -1  10   59.63    5.68
  -1  -1   9  139.66    7.94
   1  -1  -9  146.81    9.78
   1  -1  -9  116.75    8.29
   1  -1  -9  129.24    9.53
  -1  -1   9  141.16    9.28
  -1  -1   9  139.96    9.23
  -1  -1   9  124.45    7.95
   1  -1  -8  634.92   26.51
  -1  -1   8  717.72   24.45
  -1  -1   8  696.73   26.12
   1  -1  -8  705.04   26.92
   1  -1  -8  636.45   24.92
  -1  -1   8  724.22   26.54
   1  -1  -8  608.39   25.42
   1  -1  -8  688.55   27.77
   1  -1  -7   51.25    5.52
  -1  -1   7   59.30    6.16
  -1  -1   7   52.83    5.82
   1  -1  -7   54.13    6.30
   1  -1  -7   56.76    6.83
  -1  -1   7   49.59    5.33
   1  -1  -7   56.63    6.61
  -1  -1   7   54.93    5.42
   1  -1  -7   53.22    5.96
   1  -1  -6  156.20   11.42
   1  -1  -6  150.95   10.69
  -1  -1   6  139.49   10.04
  -1  -1   6  159.52   10.13
   1  -1  -6  121.15    9.42
  -1  -1   6  123.33   10.30
  -1  -1   6  158.90   10.61
   1  -1  -6  163.49   11.53
   1  -1  -5 1600.55   54.67
   1  -1  -5 1603.33   51.29
  -1  -1   5 1530.29   50.75
  -1  -1   5 1623.92   52.88
   1  -1  -5 1703.75   55.08
  -1  -1   5 1669.54   52.86
   1  -1  -4 1022.51   37.91
  -1  -1   4  976.54   34.96
  -1  -1   4  931.04   33.45
  -1  -1   4  971.81   35.24
   1  -1  -4  884.51   32.91
   1  -1  -3  174.04   11.89
   1  -1  -3  228.80   14.90
   1  -1  -3  185.14   12.29
  -1  -1   3  222.05   12.77
  -1  -1   3  199.05   12.37
  -1  -1   2 4151.51  125.63
   1  -1  -2 3983.26  126.57
   1  -1  -2 3723.10  127.29
   1  -1  -1 1283.99   42.63
  -1  -1   1 1334.43   39.56
   1  -1  -1 1220.48   42.31
   1  -1   0 3114.81   85.49
   1  -1   0 3021.49   85.65
   1  -1   0 2879.76   85.60
  -1  -1   0 3204.84   85.08
   1  -1   1 1208.00   42.97
  -1  -1  -1 1361.00   40.61
   1  -1   1 1337.57   43.43
   1  -1   1 1202.78   42.28
  -1  -1  -1 1304.94   41.20
  -1  -1  -2 2425.12   71.63
  -1  -1  -2 2458.93   69.01
  -1  -1  -2 2519.36   71.50
   1  -1   2 2413.35   73.92
   1  -1   2 2288.08   73.89
   1  -1   2 2263.91   71.34
   1  -1   2 2313.94   65.03
  -1  -1  -3 2693.79   77.27
   1  -1   3 2593.84   78.35
  -1  -1  -3 2574.72   78.43
   1  -1   3 2619.08   77.97
  -1  -1  -3 2748.09   76.14
  -1  -1  -3 2587.71   70.69
   1  -1   3 2585.62   72.68
  -1  -1  -4  996.58   34.66
   1  -1   4  954.48   35.19
   1  -1   4  999.82   35.87
   1  -1   4 1042.93   37.01
   1  -1   4  949.03   31.55
   1  -1   5  514.91   21.86
  -1  -1  -5  485.48   21.88
   1  -1   5  458.40   21.13
  -1  -1  -6 1489.36   50.66
  -1  -1  -6 1525.30   51.42
  -1  -1  -6 1456.44   49.42
   1  -1   6 1554.84   49.83
  -1  -1  -6 1539.06   50.42
  -1  -1  -6 1578.00   50.16
   1  -1   6 1641.08   49.09
  -1  -1  -7  238.66   13.17
  -1  -1  -7  217.99   12.71
  -1  -1  -7  242.66   13.56
  -1  -1  -7  228.17   13.70
   1  -1   7  264.31   12.59
  -1  -1  -7  233.02   14.00
  -1  -1  -7  200.24   13.52
   1  -1   7  247.87   13.43
   1  -1   7  219.16   10.42
  -1  -1  -8  113.98    8.74
  -1  -1  -8  108.38    8.90
   1  -1   8  104.27    8.17
  -1  -1  -8   99.51    8.82
  -1  -1  -8  114.58    9.39
   1  -1   8  110.53    7.24
  -1  -1  -8  104.79    8.16
  -1  -1  -8  116.09    8.42
  -1  -1  -9  282.75   14.00
   1  -1   9  292.00   12.49
  -1  -1  -9  284.40   14.54
  -1  -1  -9  293.67   15.40
   1  -1   9  296.39   14.51
   1  -1  10  158.64    8.06
   1  -1  10  156.18    7.43
  -1  -1 -10  170.26    9.85
  -1  -1 -10  165.99   10.78
  -1  -1 -10  158.61   10.04
   1  -1  10  164.03    9.99
  -1  -1 -11   65.28    6.08
  -1  -1 -11   65.96    6.60
   1  -1  11   73.87    6.18
   1  -1  11   67.22    4.60
   1  -1  11   62.12    3.98
  -1   1  11   99.63    6.40
   1   1 -11   94.84    7.02
  -1   1  11  105.44    7.39
  -1   1  11   98.85    4.65
   1   1 -11   91.38    7.93
  -1   1  10   44.79    4.62
  -1   1  10   48.03    5.11
  -1   1  10   44.11    3.14
   1   1 -10   37.96    4.60
   1   1 -10   55.79    5.44
   1   1 -10   40.66    5.28
  -1   1   9  121.99    7.98
  -1   1   9  120.85    5.94
  -1   1   9  129.71    8.84
   1   1  -9  131.88    8.78
   1   1  -9  124.96    6.38
   1   1  -9  123.90    8.50
   1   1  -9  115.68    9.15
   1   1  -8  660.29   27.77
   1   1  -8  665.64   26.28
   1   1  -8  768.14   29.78
  -1   1   8  691.57   26.04
   1   1  -8  707.39   23.31
  -1   1   8  750.21   27.50
  -1   1   8  702.16   22.53
   1   1  -8  785.34   27.47
  -1   1   8  764.01   27.46
   1   1  -7   42.90    5.54
  -1   1   7   43.58    5.40
  -1   1   7   43.04    4.71
  -1   1   7   38.88    3.51
  -1   1   7   32.95    4.65
   1   1  -7   33.92    4.67
  -1   1   7   36.92    4.97
  -1   1   6  146.47    7.35
  -1   1   6  133.25    8.72
  -1   1   6  138.65   10.00
   1   1  -6  119.63    9.19
  -1   1   6  121.81    9.31
  -1   1   5 1668.25   51.94
  -1   1   5 1706.58   54.39
   1   1  -5 1607.91   53.20
   1   1  -5 1715.62   54.20
  -1   1   4  910.85   31.80
  -1   1   4  908.02   33.35
   1   1  -4  945.13   34.19
  -1   1   4  918.87   33.63
   1   1  -4  905.45   36.28
  -1   1   3  251.97   14.06
   1   1  -3  264.72   14.74
   1   1  -3  276.98   16.60
  -1   1   3  262.38   12.96
   1   1  -3  269.11   17.36
   1   1  -3  273.17   14.99
  -1   1   3  250.71   13.93
  -1   1   2 4595.30  125.75
  -1   1   2 4641.80  128.01
   1   1  -2 4145.12  128.12
   1   1  -2 4610.72  131.74
  -1   1   2 4631.65  127.86
   1   1  -2 4591.01  133.13
  -1   1   1 1181.12   37.94
  -1   1   1 1184.93   39.81
   1   1  -1 1164.98   41.14
   1   1  -1 1145.05   40.02
  -1   1   0 3372.67   94.15
  -1   1   0 3401.51   94.21
   1   1   0 3156.24   93.65
  -1   1   0 3290.39   89.98
  -1   1   0 3228.90   93.92
   1   1   0 3445.35   94.68
  -1   1   0 3034.08   93.06
   1   1   0 3267.24   93.87
   1   1   0 3297.10   90.73
  -1   1  -1 1415.32   45.63
   1   1   1 1298.52   44.58
   1   1   1 1443.32   44.95
  -1   1  -1 1417.95   42.21
  -1   1  -1 1447.12   45.49
  -1   1  -1 1499.42   47.39
   1   1   1 1515.65   46.89
  -1   1  -2 2296.28   71.07
   1   1   2 2304.70   69.84
   1   1   2 2372.81   72.12
   1   1   2 2235.28   69.71
  -1   1  -2 2425.70   73.73
  -1   1  -2 2381.59   73.26
   1   1   2 2373.03   71.19
  -1   1  -3 2671.50   79.06
   1   1   3 2690.52   78.50
  -1   1  -3 2543.95   72.56
  -1   1  -3 2652.36   81.04
   1   1   3 2537.44   76.03
   1   1   3 2611.81   77.44
  -1   1  -3 2420.98   79.65
   1   1   3 2515.84   76.97
  -1   1  -4 1035.90   33.85
   1   1   4 1119.24   37.83
  -1   1  -4 1120.03   40.46
   1   1   4 1053.32   32.19
  -1   1  -4 1069.11   40.25
   1   1   4 1012.90   35.72
   1   1   4 1023.40   36.79
   1   1   4 1058.20   30.89
   1   1   5  466.22   15.87
   1   1   5  450.40   19.27
   1   1   5  501.16   21.00
  -1   1  -5  469.30   18.53
  -1   1  -5  477.18   23.14
  -1   1  -6 1545.98   46.32
  -1   1  -6 1461.93   50.00
   1   1   6 1359.67   45.98
  -1   1  -6 1522.88   46.14
   1   1   6 1464.36   42.75
   1   1   6 1610.43   48.58
  -1   1  -6 1419.37   49.03
  -1   1  -6 1587.81   52.31
  -1   1  -7  251.70   14.10
  -1   1  -7  251.24   11.88
  -1   1  -7  250.19   15.43
   1   1   7  250.59   10.00
  -1   1  -7  284.00   12.80
  -1   1  -7  251.42   14.54
   1   1   7  282.47   13.84
  -1   1  -8  114.27    9.29
   1   1   8  112.37    7.38
  -1   1  -8  128.80    7.98
   1   1   8  116.96    5.82
  -1   1  -8  125.22    9.48
  -1   1  -8  125.68   10.29
  -1   1  -8  131.25   10.27
  -1   1  -8  118.77    7.06
   1   1   9  267.99   10.06
  -1   1  -9  276.93   11.45
  -1   1  -9  283.58   15.24
   1   1   9  280.27   12.21
  -1   1  -9  301.33   12.96
  -1   1  -9  283.29   14.76
   1   1   9  276.67   13.72
  -1   1 -10  158.10   10.71
  -1   1 -10  156.52   10.32
   1   1  10  163.89    8.14
   1   1  10  149.16    6.37
   1   1  10  156.26    9.54
  -1   1 -10  176.18    9.05
   1   1  11   68.21    5.85
  -1   1 -11   62.90    6.14
  -1   1 -11   59.83    6.33
   1   1  11   60.24    4.39
  -1   3  10   18.84    3.29
  -1   3  10   20.14    3.43
  -1   3  10   24.70    3.63
   1   3 -10   21.09    3.70
  -1   3   9  272.30   13.47
  -1   3   9  313.00   14.32
  -1   3   9  284.84   12.61
   1   3  -9  258.84   14.13
  -1   3   8  120.92    8.50
  -1   3   8  113.55    8.34
   1   3  -8  104.85    9.89
  -1   3   8  122.44    7.63
   1   3  -7   83.72    7.59
  -1   3   7   84.26    6.96
   1   3  -7   93.16    9.17
   1   3  -7   85.35    9.06
  -1   3   7   93.75    7.05
   1   3  -7   94.35    9.53
  -1   3   7   71.82    7.08
   1   3  -7   77.37    7.04
  -1   3   7  101.50    7.01
   1   3  -6  555.12   25.37
   1   3  -6  468.30   20.90
  -1   3   6  466.10   21.47
  -1   3   6  550.34   20.44
   1   3  -6  467.28   21.52
   1   3  -6  540.83   25.16
  -1   3   6  527.24   20.74
   1   3  -6  541.64   24.59
  -1   3   6  533.66   21.26
   1   3  -5  114.43    8.65
   1   3  -5  122.08   10.93
   1   3  -5  113.11    8.96
  -1   3   5  123.43    9.64
  -1   3   5  122.43    8.82
   1   3  -5  112.36   10.42
  -1   3   5  124.14    8.65
  -1   3   5  116.51    8.04
   1   3  -4 1298.68   47.01
   1   3  -4 1355.53   47.34
  -1   3   4 1303.18   42.00
  -1   3   4 1267.19   36.32
  -1   3   4 1289.93   42.55
  -1   3   4 1274.36   42.84
  -1   3   3  524.44   21.41
   1   3  -3  503.09   24.27
  -1   3   3  507.08   17.92
   1   3  -3  514.11   24.43
  -1   3   3  496.32   21.42
   1   3  -3  464.65   19.87
  -1   3   2  170.37   11.09
   1   3  -2  161.30    9.49
   1   3  -2  164.27   12.41
  -1   3   2  174.07   10.81
   1   3  -2  165.96   12.31
   1   3  -2  171.11   11.36
  -1   3   2  161.80    9.72
  -1   3   1 3639.43  100.36
  -1   3   1 3145.64  101.53
   1   3  -1 3422.99   98.42
   1   3  -1 3548.22  105.52
  -1   3   1 3552.64  103.15
  -1   3   1 3643.21  104.52
   1   3  -1 3586.02  103.92
   1   3  -1 3685.32  105.66
   1   3  -1 3530.55  102.50
  -1   3   0  408.83   19.84
  -1   3   0  399.36   20.05
   1   3   0  422.22   19.15
  -1   3   0  401.16   19.20
  -1   3   0  418.04   16.81
  -1   3   0  423.69   20.77
   1   3   0  416.36   20.38
   1   3   0  385.97   12.75
  -1   3   0  432.07   21.15
   1   3   0  395.61   20.25
  -1   3  -1  273.91   16.18
  -1   3  -1  232.50   13.57
   1   3   1  277.35   14.74
  -1   3  -1  267.97   12.42
  -1   3  -1  278.02   15.69
  -1   3  -1  276.02   16.16
  -1   3  -1  254.34   10.18
   1   3   1  276.58   15.56
  -1   3  -2 5140.23  151.27
  -1   3  -2 5559.79  155.47
  -1   3  -2 5439.11  155.89
  -1   3  -2 5488.44  149.41
   1   3   2 5506.17  151.12
   1   3   2 5490.80  153.07
   1   3   2 5333.82  152.08
  -1   3  -2 5512.61  154.26
   1   3   3  270.12   14.45
  -1   3  -3  253.53   15.72
   1   3   3  298.30   15.39
  -1   3  -3  283.19   17.11
   1   3   3  243.25   13.69
  -1   3  -3  289.38   15.71
   1   3   3  294.32   13.62
  -1   3  -4  152.50   11.88
  -1   3  -4  150.75   10.78
   1   3   4  147.11   10.19
  -1   3  -4  143.28   10.04
   1   3   4  165.09   10.43
   1   3   4  146.03    9.82
  -1   3  -4  146.66   11.98
  -1   3  -5 1512.54   50.32
   1   3   5 1329.63   45.84
  -1   3  -5 1386.04   46.42
   1   3   5 1353.16   45.59
   1   3   5 1492.05   46.21
  -1   3  -5 1499.64   51.03
  -1   3  -5 1421.22   47.61
  -1   3  -6  175.59   13.16
  -1   3  -6  167.14   10.98
  -1   3  -6  190.04   13.34
   1   3   6  175.78   10.87
  -1   3  -6  181.83   12.91
   1   3   6  194.47   11.00
  -1   3  -6  185.73   11.78
   1   3   6  188.67   10.76
   1   3   7  406.13   17.14
   1   3   7  371.86   12.47
  -1   3  -7  439.22   21.15
  -1   3  -7  427.51   20.44
  -1   3  -7  382.57   17.96
   1   3   7  359.47   16.84
   1   3   7  417.57   17.65
  -1   3  -7  407.43   20.88
  -1   3  -7  399.30   18.48
   1   3   8  251.19   12.46
  -1   3  -8  232.06   15.04
   1   3   8  248.98   12.03
  -1   3  -9   28.39    4.72
   1   3   9   23.62    3.61
   1   3   9   30.75    4.01
  -1   3 -10  341.93   16.95
   1   3  10  362.11   15.24
   1   3  10  324.48   13.95
   1   5  -9   17.06    4.67
  -1   5   9   15.02    3.19
  -1   5   9   15.21    2.98
  -1   5   9   17.96    3.07
  -1   5   8  284.07   14.39
   1   5  -8  341.33   17.98
  -1   5   8  324.00   14.52
   1   5  -7   36.49    6.12
  -1   5   7   25.72    4.17
  -1   5   7   26.26    3.80
  -1   5   6   32.83    4.35
   1   5  -6   31.97    4.29
  -1   5   6   29.95    4.66
   1   5  -6   35.25    5.85
  -1   5   6   31.20    3.97
  -1   5   5  580.23   22.28
   1   5  -5  512.88   20.86
   1   5  -5  590.48   25.77
   1   5  -5  511.04   22.45
  -1   5   5  564.64   21.22
   1   5  -4   62.79    7.37
  -1   5   4   62.50    6.05
  -1   5   4   47.66    5.87
   1   5  -4   52.75    5.13
  -1   5   4   62.58    5.85
   1   5  -4   55.96    6.45
   1   5  -4   63.04    7.52
  -1   5   4   63.77    5.75
   1   5  -4   56.85    6.10
  -1   5   3   50.89    5.54
  -1   5   3   51.76    5.41
  -1   5   3   43.95    5.58
   1   5  -3   56.05    7.12
   1   5  -3   48.12    4.79
   1   5  -3   51.39    5.69
   1   5  -3   52.32    6.25
   1   5  -3   55.35    6.86
  -1   5   2  976.57   33.96
   1   5  -2 1003.25   33.79
  -1   5   2  878.83   34.21
   1   5  -2  944.34   35.75
  -1   5   2  985.00   35.28
  -1   5   2  971.02   32.82
   1   5  -2  976.05   35.17
   1   5  -2  980.39   36.74
  -1   5   1  194.16   12.46
  -1   5   1  184.27   11.83
  -1   5   1  202.86   10.67
   1   5  -1  216.08   11.74
   1   5  -1  188.67   12.44
   1   5  -1  187.95   12.75
  -1   5   0  417.96   19.72
  -1   5   0  377.10   18.11
  -1   5   0  398.55   16.23
  -1   5   0  376.13   18.06
   1   5   0  390.19   17.33
   1   5   0  382.79   19.09
  -1   5   0  390.71   18.86
  -1   5  -1  499.22   21.97
  -1   5  -1  459.56   20.41
   1   5   1  484.14   20.48
   1   5   1  512.67   20.44
   1   5   1  495.20   21.80
  -1   5  -1  481.28   22.41
  -1   5  -1  451.13   19.16
  -1   5  -1  474.24   18.39
  -1   5  -1  495.96   21.74
   1   5   1  442.30   20.58
  -1   5  -2  177.18   12.47
  -1   5  -2  177.75   11.98
  -1   5  -2  167.05    6.73
   1   5   2  172.02   11.25
  -1   5  -2  158.56    9.79
  -1   5  -2  164.65    9.13
   1   5   2  155.26   10.13
  -1   5  -2  144.02   10.82
   1   5   2  157.21    9.93
   1   5   2  162.64   10.80
  -1   5  -3  682.11   28.37
  -1   5  -3  673.80   27.62
  -1   5  -3  657.49   26.54
  -1   5  -3  646.91   23.30
   1   5   3  647.56   25.01
   1   5   3  629.98   23.83
  -1   5  -3  621.54   24.33
   1   5   4   46.76    5.33
  -1   5  -4   54.87    6.74
   1   5   4   47.38    5.38
  -1   5  -4   56.60    7.23
  -1   5  -4   40.51    4.57
  -1   5  -4   42.26    5.72
  -1   5  -4   40.75    4.87
   1   5   4   38.82    4.41
  -1   5  -5   76.95    8.30
  -1   5  -5   75.27    6.66
   1   5   5   67.89    6.28
   1   5   5   72.10    6.87
  -1   5  -5   70.32    6.19
   1   5   5   79.63    6.61
  -1   5  -5   80.08    7.53
   1   5   6  555.68   23.17
  -1   5  -6  594.50   23.22
   1   5   7   53.25    4.86
   1   5   7   43.88    5.17
  -1   5  -7   49.27    6.74
  -1   5  -8    3.76    3.21
   1   5   8    1.57    1.87
   1   5   8    2.65    1.86
   1   5   9  193.21    9.84
  -1   5  -9  183.50   12.65
   1   5   9  171.91    9.88
   1   7  -6   97.46    8.98
   1   7  -6  104.18    7.55
  -1   7   6  102.51    7.31
   1   7  -5  135.37   10.63
   1   7  -5  129.15    8.30
  -1   7   5  111.14    7.92
   1   7  -4  141.53    8.13
   1   7  -4  146.54   11.05
  -1   7   4  131.90    9.25
   1   7  -4  155.22    9.21
  -1   7   4  138.01    9.02
   1   7  -3   45.74    4.86
   1   7  -3   50.08    6.32
   1   7  -3   41.07    4.13
  -1   7   3   44.14    5.20
  -1   7   2   62.46    5.33
  -1   7   2   51.19    5.66
   1   7  -2   59.05    4.88
   1   7  -2   63.36    5.65
   1   7  -2   61.18    6.87
  -1   7   1  247.13   11.19
  -1   7   1  203.83   11.92
   1   7  -1  223.97   10.29
   1   7  -1  225.13   11.51
  -1   7   1  217.86   12.76
   1   7  -1  225.00   13.41
   1   7   0  115.40    7.80
  -1   7   0  118.20    9.13
   1   7   0  110.03    6.50
  -1   7   0   97.56    6.79
  -1   7   0  116.71    7.16
   1   7   0  116.71    9.04
  -1   7   0  106.88    8.19
   1   7   1   63.33    4.67
   1   7   1   73.03    6.15
  -1   7  -1   66.19    5.28
   1   7   1   63.07    6.62
  -1   7  -1   71.29    7.24
  -1   7  -1   67.04    5.52
   1   7   2  298.23   13.60
  -1   7  -2  298.74   12.41
  -1   7  -2  295.60   15.84
  -1   7  -2  261.73   12.61
  -1   7  -3  173.72   11.92
   1   7   3  161.90   10.39
  -1   7  -3  176.57    8.90
   1   7   3  171.28    9.82
  -1   7  -4   55.48    4.74
  -1   7  -4   66.95    7.25
   1   7   5  115.18    8.38
  -1   7  -5  131.21   10.52
  -1   7  -5  120.99    7.23
  -2  -8   2   57.09    5.00
  -2  -8   2   60.42    6.28
   2  -8  -2   50.56    4.08
  -2  -8   1   77.59    5.66
   2  -8  -1   75.21    5.27
  -2  -8   1   67.15    6.72
   2  -8  -1   73.99    6.48
  -2  -8   0  147.05    7.72
  -2  -8   0  124.31    9.27
   2  -8   0  146.91    9.23
   2  -8   0  142.12    7.89
  -2  -8  -1   18.04    2.60
   2  -8   1   17.63    3.53
  -2  -8  -1   13.87    3.44
   2  -8   1   21.17    3.09
  -2  -8  -2  151.22    7.15
  -2  -6   7  120.57    8.14
  -2  -6   7  118.54    8.49
   2  -6  -7  111.64    8.83
  -2  -6   7  111.07    6.70
  -2  -6   6   75.05    6.94
   2  -6  -6   71.18    7.13
  -2  -6   6   80.78    6.83
  -2  -6   6   75.93    5.70
   2  -6  -5  164.36    6.46
  -2  -6   5  197.82   11.55
   2  -6  -5  167.61   11.28
   2  -6  -5  173.92    9.65
  -2  -6   5  184.72   10.76
  -2  -6   4   67.26    6.68
   2  -6  -4   59.11    6.55
   2  -6  -4   64.14    5.41
  -2  -6   4   64.80    6.35
  -2  -6   3   49.95    6.01
   2  -6  -3   36.22    3.98
   2  -6  -3   39.56    5.36
  -2  -6   2  365.11   16.42
   2  -6  -2  323.98   16.61
   2  -6  -2  324.14   13.78
  -2  -6   2  378.37   15.31
   2  -6  -2  355.45   14.20
   2  -6  -1   89.55    6.39
  -2  -6   1   81.03    7.13
  -2  -6   1   96.37    6.96
   2  -6  -1   87.26    7.33
   2  -6  -1   80.75    7.46
  -2  -6   1   94.44    7.26
   2  -6  -1   84.93    5.68
   2  -6  -1   85.43    7.31
  -2  -6   0   17.61    3.12
   2  -6   0   15.28    3.45
   2  -6   0   18.50    3.08
  -2  -6   0   16.63    3.50
   2  -6   0   23.16    3.82
   2  -6   0   18.76    3.69
   2  -6   1  384.58   15.98
   2  -6   1  331.16   16.17
  -2  -6  -1  374.41   14.72
  -2  -6  -1  312.71   16.74
   2  -6   1  353.03   15.57
  -2  -6  -1  332.34   15.22
  -2  -6  -1  331.83   16.13
   2  -6   1  325.19   15.84
  -2  -6  -2  140.23    7.45
   2  -6   2  156.28    9.55
  -2  -6  -2  133.38   10.07
   2  -6   2  158.12    9.05
   2  -6   2  133.72    9.37
  -2  -6  -2  143.40    9.13
   2  -6   3   46.05    4.54
  -2  -6  -3   47.07    5.96
  -2  -6  -3   39.76    4.74
   2  -6   3   55.06    5.70
   2  -6   3   40.13    5.18
  -2  -6  -3   40.69    5.21
  -2  -6  -3   45.35    3.54
   2  -6   4  262.08   13.95
   2  -6   4  326.76   15.23
  -2  -6  -4  293.68    9.96
   2  -6   4  308.29   12.83
  -2  -6  -4  270.26   15.19
  -2  -6  -4  285.03   14.59
   2  -6   5   47.93    5.33
   2  -6   5   45.60    4.08
  -2  -6  -5   37.71    2.86
   2  -6   5   29.83    4.61
  -2  -6  -5   33.98    5.17
  -2  -6  -5   45.59    5.36
   2  -6   5   37.09    4.84
   2  -6   6   93.97    5.70
   2  -6   6   97.37    7.63
   2  -6   6   91.41    7.08
   2  -6   6   80.93    7.07
  -2  -6  -6   92.44    8.31
  -2  -6  -6   83.22    7.19
   2  -6   7   79.66    3.88
   2  -6   7   93.54    7.14
  -2  -6  -7   81.26    4.94
  -2  -6  -7   86.44    7.25
   2  -6   7   83.40    6.51
   2  -6   7   79.65    4.94
  -2  -6  -7   78.02    7.57
  -2  -4  10  144.65    8.20
   2  -4 -10  112.83    8.47
  -2  -4   9  168.37    9.53
  -2  -4   9  173.54    9.56
   2  -4  -9  146.40    9.93
  -2  -4   9  159.43    8.25
  -2  -4   8   51.59    5.36
  -2  -4   8   51.19    4.97
   2  -4  -8   46.79    5.55
  -2  -4   8   51.63    4.51
  -2  -4   7  202.48   10.08
   2  -4  -7  188.83   11.92
   2  -4  -7  174.75   11.24
  -2  -4   6  460.45   18.25
   2  -4  -6  424.65   19.61
   2  -4  -6  430.04   20.47
  -2  -4   6  496.16   18.75
   2  -4  -6  525.43   22.66
   2  -4  -6  499.06   22.03
  -2  -4   5  138.23    9.95
  -2  -4   5  138.23    8.23
   2  -4  -5  146.13   11.22
  -2  -4   5  119.00    8.22
   2  -4  -5  138.18   10.76
   2  -4  -5  137.18    9.41
   2  -4  -5  134.55   10.02
  -2  -4   5  116.25    9.85
  -2  -4   5  153.02   10.39
   2  -4  -4  165.57   11.52
   2  -4  -4  145.74   10.64
  -2  -4   4  135.93   10.65
  -2  -4   4  146.16   10.53
   2  -4  -4  133.27    9.08
  -2  -4   4  141.20    8.24
  -2  -4   4  153.01    8.79
  -2  -4   4  155.30   10.80
   2  -4  -3  711.11   29.70
  -2  -4   3  799.55   30.24
  -2  -4   3  847.42   27.55
  -2  -4   3  735.67   29.97
   2  -4  -3  797.24   30.86
  -2  -4   3  720.68   30.51
   2  -4  -2  538.58   16.92
  -2  -4   2  534.70   24.57
   2  -4  -2  564.55   20.78
   2  -4  -2  571.24   24.40
  -2  -4   2  532.74   23.32
   2  -4  -1  280.55   13.30
   2  -4  -1  251.37   11.65
  -2  -4   1  257.95   14.67
  -2  -4   1  255.40   15.71
  -2  -4   0  401.83   20.17
  -2  -4   0  409.62   19.56
   2  -4   0  428.88   19.28
   2  -4   0  442.51   18.76
  -2  -4   0  458.28   18.88
   2  -4   0  433.42   20.16
   2  -4   0  403.50   15.72
  -2  -4   0  412.88   18.76
  -2  -4   0  471.87   19.55
   2  -4   1  566.09   22.22
  -2  -4  -1  502.91   22.30
  -2  -4  -1  594.26   22.97
  -2  -4  -1  608.05   22.15
   2  -4   1  565.18   23.20
  -2  -4  -1  533.49   24.35
  -2  -4  -1  517.67   23.25
   2  -4   2  692.11   24.04
  -2  -4  -2  610.58   26.56
  -2  -4  -2  702.88   22.73
  -2  -4  -2  702.07   25.87
  -2  -4  -2  580.37   20.17
  -2  -4  -2  607.91   25.04
  -2  -4  -2  618.40   25.12
  -2  -4  -2  590.53   25.36
   2  -4   2  699.44   26.69
  -2  -4  -3  120.73    9.33
  -2  -4  -3  122.76    9.29
  -2  -4  -3  127.81    6.32
   2  -4   3  140.68   10.29
  -2  -4  -3  112.68    9.57
  -2  -4  -3  119.24    8.98
   2  -4   3  129.36    7.84
   2  -4   3  131.74    9.58
  -2  -4  -3  119.71    6.46
  -2  -4  -3  127.34    9.35
  -2  -4  -4  512.33   21.33
  -2  -4  -4  496.99   14.21
   2  -4   4  567.86   23.10
  -2  -4  -4  446.71   21.72
   2  -4   4  519.40   17.94
   2  -4   4  436.57   20.36
  -2  -4  -4  450.60   20.80
  -2  -4  -4  439.08   20.71
  -2  -4  -4  456.84   17.53
  -2  -4  -4  477.91   20.72
  -2  -4  -5  449.88   20.34
   2  -4   5  515.99   21.95
   2  -4   5  429.33   19.51
   2  -4   5  451.55   15.18
   2  -4   5  475.71   16.53
  -2  -4  -5  510.96   20.98
  -2  -4  -5  438.80   19.76
  -2  -4  -6  256.47   14.66
   2  -4   6  265.63    9.43
  -2  -4  -6  268.90   13.84
   2  -4   6  274.11   10.57
  -2  -4  -6  283.90   14.44
   2  -4   6  261.83   13.11
  -2  -4  -6  262.26   12.80
  -2  -4  -6  256.60   14.11
   2  -4   6  247.79   13.32
   2  -4   7   47.90    2.81
   2  -4   7   48.08    5.62
  -2  -4  -7   40.36    5.49
  -2  -4  -7   46.97    5.39
   2  -4   7   49.64    5.22
   2  -4   7   47.53    5.08
   2  -4   7   45.48    3.40
  -2  -4  -7   55.90    5.99
  -2  -4  -8  351.04   15.90
   2  -4   8  325.51   14.81
  -2  -4  -8  299.45   14.65
   2  -4   8  324.07   11.24
  -2  -4  -8  309.44   16.29
   2  -4   8  350.61   15.50
   2  -4   8  300.94   14.51
   2  -4   9  131.19    8.40
  -2  -4  -9  110.36    9.14
   2  -4   9  125.72    8.31
   2  -4   9  135.85    8.35
   2  -4   9  134.65    5.52
  -2  -4  -9  113.86    8.04
  -2  -2  11   26.28    3.72
   2  -2 -11   26.48    3.97
  -2  -2  11   21.70    2.97
  -2  -2  11   22.40    3.08
  -2  -2  10   93.22    6.52
  -2  -2  10  102.41    7.46
   2  -2 -10  102.26    7.80
  -2  -2  10   95.62    6.47
  -2  -2   9  324.71   14.26
  -2  -2   9  307.35   13.96
  -2  -2   9  347.14   15.62
   2  -2  -9  336.87   15.98
   2  -2  -8    7.36    2.70
  -2  -2   8   15.57    3.29
   2  -2  -8   10.05    3.33
  -2  -2   8    9.95    2.71
  -2  -2   8    9.65    2.56
  -2  -2   8    9.26    2.98
  -2  -2   7  148.51    9.57
  -2  -2   7  163.09   10.13
   2  -2  -7  129.72    9.68
  -2  -2   7  142.81   10.26
  -2  -2   7  134.44    8.72
   2  -2  -7  147.61   10.91
  -2  -2   6 1334.84   43.32
   2  -2  -6 1349.07   46.34
   2  -2  -6 1264.14   44.03
  -2  -2   6 1278.84   44.50
   2  -2  -5  222.35   14.56
  -2  -2   5  212.98   12.19
   2  -2  -5  204.39   13.11
  -2  -2   4  528.67   21.69
   2  -2  -4  564.63   26.04
  -2  -2   4  516.01   22.08
  -2  -2   3 3015.66   85.43
   2  -2  -3 2978.98   91.41
  -2  -2   3 2890.90   88.82
  -2  -2   3 2799.85   87.44
   2  -2  -3 3115.17   92.88
  -2  -2   2  833.39   33.01
  -2  -2   2  860.33   28.75
   2  -2  -2  899.43   35.35
   2  -2  -2  892.97   31.20
   2  -2  -1 1997.04   57.14
  -2  -2   1 1934.98   55.03
   2  -2  -1 1916.58   56.79
  -2  -2   1 1931.82   61.47
  -2  -2   0 4318.63  131.79
   2  -2   0 4648.18  125.18
  -2  -2   0 4668.98  131.82
   2  -2   0 4090.85  131.12
  -2  -2   0 4963.70  130.15
  -2  -2   0 4609.00  127.14
  -2  -2   0 4617.15  131.02
   2  -2   0 4562.70  123.42
   2  -2   0 4818.43  130.96
  -2  -2  -1  828.08   29.67
  -2  -2  -1  763.45   30.09
   2  -2   1  767.62   28.50
   2  -2   1  840.39   31.33
  -2  -2  -1  801.82   27.26
   2  -2   1  835.31   28.79
  -2  -2  -1  756.55   28.63
  -2  -2  -1  792.07   30.83
  -2  -2  -2 2084.01   64.81
  -2  -2  -2 2023.45   64.66
  -2  -2  -2 2086.76   62.74
  -2  -2  -2 2115.85   63.96
   2  -2   2 2215.05   67.22
   2  -2   2 2011.22   63.73
   2  -2   2 2036.09   60.13
  -2  -2  -2 2075.57   61.84
   2  -2   3  280.66   11.00
   2  -2   3  315.34   16.90
   2  -2   3  260.27   14.37
  -2  -2  -3  278.73   13.54
   2  -2   3  284.78   14.88
  -2  -2  -3  268.90   14.95
   2  -2   3  259.45    9.24
  -2  -2  -3  302.09   15.06
   2  -2   4  421.35   14.14
  -2  -2  -4  398.82   19.38
  -2  -2  -4  424.96   18.74
  -2  -2  -4  392.94   17.10
   2  -2   4  410.21   13.14
   2  -2   4  393.49   18.55
  -2  -2  -5  734.51   28.61
  -2  -2  -5  739.80   26.60
   2  -2   5  746.97   28.45
  -2  -2  -5  733.39   29.30
  -2  -2  -5  779.01   28.29
   2  -2   5  741.75   22.54
   2  -2   5  784.68   30.04
   2  -2   6  189.06   11.42
  -2  -2  -6  189.20   11.53
  -2  -2  -6  191.01   12.30
  -2  -2  -6  201.56   11.61
   2  -2   6  201.29   11.96
   2  -2   6  165.49   10.94
  -2  -2  -6  192.57   13.16
  -2  -2  -6  176.75   10.21
  -2  -2  -7   95.14    8.31
  -2  -2  -7   80.09    7.70
  -2  -2  -7   73.01    6.98
  -2  -2  -7   79.40    8.18
  -2  -2  -7   79.45    7.56
   2  -2   7   91.97    7.53
  -2  -2  -7   78.22    6.37
  -2  -2  -8  790.93   29.28
   2  -2   8  890.11   28.87
  -2  -2  -8  770.18   30.27
  -2  -2  -8  852.84   30.27
  -2  -2  -8  751.11   27.35
   2  -2   8  824.77   29.27
  -2  -2  -8  771.77   29.94
   2  -2   8  787.60   24.48
   2  -2   9   98.51    7.57
  -2  -2  -9   97.85    7.75
   2  -2   9   87.26    4.73
   2  -2   9   93.15    6.62
  -2  -2  -9   99.08    8.28
  -2  -2  -9   88.04    6.50
  -2  -2  -9   81.63    7.41
   2  -2  10   70.41    3.77
  -2  -2 -10   64.90    5.49
   2  -2  10   71.21    5.40
   2  -2  10   85.29    6.72
  -2  -2 -10   65.42    6.63
  -2  -2 -11  131.67    7.73
   2  -2  11  147.24    8.81
   2  -2  11  130.48    5.21
   2  -2  11  131.75    7.19
  -2  -2 -11  130.88    9.37
  -2   0  11   39.69    4.55
  -2   0  11   35.48    4.36
  -2   0  11   30.36    3.68
  -2   0  11   28.92    2.90
   2   0 -11   37.39    3.99
  -2   0  10  259.29   12.41
  -2   0  10  263.55   11.01
   2   0 -10  267.29   12.48
  -2   0  10  296.24   13.93
  -2   0  10  278.66   13.70
  -2   0   9   17.13    3.41
  -2   0   9   14.91    3.20
  -2   0   9   17.48    3.25
   2   0  -9   17.00    3.91
   2   0  -9   11.60    2.55
  -2   0   9   17.32    2.60
   2   0  -8  521.99   21.98
   2   0  -8  505.41   19.51
  -2   0   8  501.25   18.53
  -2   0   8  464.52   20.02
  -2   0   8  520.38   21.19
   2   0  -8  545.24   23.86
  -2   0   8  520.90   21.26
   2   0  -8  480.18   14.50
   2   0  -7  614.87   24.52
  -2   0   7  551.45   22.98
   2   0  -7  524.78   16.45
  -2   0   7  602.50   23.57
  -2   0   7  532.39   22.29
   2   0  -7  533.26   24.92
  -2   0   7  577.52   23.07
   2   0  -6   57.88    5.43
  -2   0   6   63.68    6.74
   2   0  -6   66.53    7.39
  -2   0   6   56.63    6.24
  -2   0   6   65.89    6.96
  -2   0   5  693.43   27.59
   2   0  -5  657.48   24.49
  -2   0   5  708.77   27.48
   2   0  -5  656.00   28.27
  -2   0   4  737.15   29.01
  -2   0   4  802.80   29.83
   2   0  -4  786.66   31.33
   2   0  -4  699.69   25.67
  -2   0   3   30.55    5.17
   2   0  -3   21.83    2.87
  -2   0   3   26.60    4.29
   2   0  -3   17.04    4.42
  -2   0   2 1961.87   62.42
   2   0  -2 1980.60   69.20
  -2   0   1   75.36    6.19
   2   0  -1   92.13    8.11
  -2   0   1   94.69    5.69
  -2   0   0   14.51    2.96
   2   0   0   12.61    2.98
  -2   0   0   13.03    2.20
  -2   0  -1 3898.86  106.67
  -2   0  -1 3941.97  109.02
  -2   0  -1 4030.70  107.11
  -2   0  -1 3766.37  108.76
   2   0   1 3872.17  111.48
   2   0   1 3832.98  110.89
   2   0   2   13.62    3.36
  -2   0  -2   15.64    3.08
  -2   0  -2   12.10    2.82
  -2   0  -2   12.82    3.09
  -2   0  -2   11.50    2.61
   2   0   3   56.26    5.30
  -2   0  -3   54.66    5.39
  -2   0  -3   48.56    5.83
  -2   0  -3   44.74    5.58
  -2   0  -3   47.24    6.31
   2   0   3   55.06    3.48
  -2   0  -3   55.76    5.96
   2   0   4 4868.48  132.84
  -2   0  -4 4573.91  138.33
  -2   0  -4 4679.37  136.12
  -2   0  -4 4759.15  136.99
   2   0   4 4660.52  129.15
  -2   0  -4 4999.19  133.17
  -2   0  -4 5193.74  138.28
  -2   0  -4 4301.32  132.87
  -2   0  -4 4857.54  136.05
  -2   0  -4 5116.34  133.22
   2   0   5   57.00    5.30
  -2   0  -5   62.33    6.01
  -2   0  -5   64.41    6.85
  -2   0  -5   48.89    5.84
   2   0   5   58.98    4.61
  -2   0  -5   59.20    5.64
  -2   0  -5   55.69    6.41
  -2   0  -5   64.58    7.28
  -2   0  -6  268.97   15.19
   2   0   6  270.13   11.59
   2   0   6  287.01   12.88
  -2   0  -6  314.54   14.09
  -2   0  -6  270.29   14.65
  -2   0  -6  304.94   16.31
  -2   0  -6  274.20   14.97
  -2   0  -7  288.24   16.08
   2   0   7  282.71   11.98
  -2   0  -7  305.47   13.92
  -2   0  -7  303.42   16.02
  -2   0  -7  328.54   16.82
   2   0   7  326.18   13.26
  -2   0  -7  294.29   15.18
  -2   0  -8   45.12    6.02
   2   0   8   31.11    3.26
  -2   0  -8   42.40    5.66
  -2   0  -8   41.24    4.68
   2   0   8   37.85    3.73
  -2   0  -8   32.95    4.89
  -2   0  -8   34.16    4.91
  -2   0  -8   29.82    4.41
  -2   0  -9  201.37   10.42
   2   0   9  206.87    9.26
  -2   0  -9  198.80   12.25
  -2   0  -9  195.63   12.12
   2   0  10   18.89    3.35
   2   0  10   22.97    2.64
  -2   0 -10   20.80    3.86
  -2   0 -10   21.70    3.31
  -2   0 -10   23.48    3.95
   2   0  11    3.71    1.34
   2   0  11    3.86    1.88
  -2   0 -11    3.57    2.35
  -2   0 -11    6.37    2.49
   2   0  11    4.34    1.30
  -2   2  11   28.56    1.66
  -2   2  11   26.42    3.82
  -2   2  11   26.52    3.62
   2   2 -11   32.48    3.90
  -2   2  10  103.48    4.24
  -2   2  10  102.16    7.29
   2   2 -10  110.06    7.52
  -2   2  10  105.09    7.63
   2   2  -9  328.61   14.95
  -2   2   9  338.96   15.34
  -2   2   9  324.40   13.57
  -2   2   9  306.88   14.77
  -2   2   9  321.00   10.61
  -2   2   8    5.99    2.69
  -2   2   8    6.25    1.99
  -2   2   8    5.43    1.20
  -2   2   8    4.66    2.28
   2   2  -8    5.06    2.14
  -2   2   7  138.94   10.01
  -2   2   7  163.37    8.98
   2   2  -7  150.25    9.82
   2   2  -7  168.87   12.81
  -2   2   6 1316.07   43.28
  -2   2   6 1208.16   44.05
   2   2  -6 1363.42   48.50
  -2   2   6 1362.20   41.35
  -2   2   6 1321.66   42.80
  -2   2   5  178.78   11.04
   2   2  -5  204.21   14.55
  -2   2   5  188.94   11.40
  -2   2   5  205.28   10.45
  -2   2   4  607.99   23.38
  -2   2   4  632.51   21.87
   2   2  -4  528.97   22.44
   2   2  -4  626.50   28.08
  -2   2   4  532.46   16.27
  -2   2   4  595.70   23.06
  -2   2   3 2966.79   84.34
  -2   2   3 3074.05   84.77
   2   2  -3 3019.91   90.32
   2   2  -2  834.61   30.11
  -2   2   2 1004.71   34.21
  -2   2   2  861.89   29.87
  -2   2   2  937.30   32.74
  -2   2   2  968.50   32.85
   2   2  -2  970.23   37.20
  -2   2   1 2108.36   61.55
  -2   2   1 2134.93   62.48
  -2   2   1 1889.71   59.49
  -2   2   1 2092.06   62.33
   2   2  -1 1820.41   55.60
  -2   2   1 1953.39   63.38
   2   2  -1 2064.67   63.86
  -2   2   0 4905.25  138.95
  -2   2   0 4900.75  131.42
  -2   2   0 5013.05  138.72
  -2   2   0 4427.60  137.57
  -2   2   0 4932.38  133.66
   2   2   0 4887.18  134.15
   2   2   0 5007.61  139.71
   2   2   0 4860.97  129.65
  -2   2   0 5037.84  138.90
  -2   2  -1  909.39   31.03
  -2   2  -1  873.36   26.33
   2   2   1  894.81   31.44
   2   2   1  928.01   34.19
  -2   2  -1  890.62   29.85
  -2   2  -1  892.78   33.64
  -2   2  -1  890.79   34.26
  -2   2  -1  886.79   33.76
  -2   2  -1  907.17   33.95
   2   2   1  929.60   29.68
  -2   2  -2 2226.96   67.39
  -2   2  -2 1983.93   62.40
   2   2   2 2249.27   63.76
  -2   2  -2 2190.66   69.26
   2   2   2 2186.77   68.48
  -2   2  -2 2206.45   67.32
   2   2   2 2254.46   67.84
   2   2   3  275.86   15.19
   2   2   3  233.52   13.10
   2   2   3  281.24   12.11
  -2   2  -3  252.03   14.37
  -2   2  -3  250.52   15.96
   2   2   3  276.72   14.72
  -2   2  -3  274.84   15.71
   2   2   3  262.60   12.84
  -2   2  -4  434.55   20.28
  -2   2  -4  410.75   21.33
  -2   2  -4  477.66   22.12
   2   2   4  454.74   20.05
   2   2   4  429.14   18.40
  -2   2  -4  449.16   21.99
   2   2   4  406.98   18.08
  -2   2  -5  825.06   32.66
  -2   2  -5  783.69   30.80
   2   2   5  800.84   29.59
  -2   2  -5  821.12   31.37
   2   2   5  882.30   31.06
  -2   2  -5  849.08   33.32
  -2   2  -5  843.29   33.17
   2   2   6  176.94    8.15
   2   2   6  196.26   11.35
   2   2   6  190.47   11.02
  -2   2  -6  186.75   11.91
  -2   2  -6  215.27   13.73
  -2   2  -6  200.75   13.22
  -2   2  -6  171.92   11.44
  -2   2  -7   92.56    7.85
  -2   2  -7   88.32    8.75
  -2   2  -7   94.26    8.79
  -2   2  -7   98.22    9.23
   2   2   7   88.90    6.65
  -2   2  -7   92.78    7.16
  -2   2  -7   93.23    7.89
   2   2   7   97.64    7.52
   2   2   7   94.81    7.39
   2   2   7   87.14    4.95
   2   2   8  906.56   30.40
  -2   2  -8  850.91   32.99
  -2   2  -8  884.82   29.47
   2   2   8  888.15   30.36
  -2   2  -8  878.47   33.30
  -2   2  -8  945.11   34.39
  -2   2  -9   90.18    8.16
   2   2   9  104.93    6.57
   2   2   9  101.21    7.42
  -2   2  -9  101.89    6.85
   2   2  10   77.52    6.26
   2   2  10   81.09    6.44
   2   2  10   79.54    5.34
  -2   2 -10   80.07    7.49
  -2   2 -10   82.20    7.58
  -2   2 -10   75.41    5.61
  -2   2 -11  131.95    9.68
  -2   2 -11  135.79    9.56
   2   2  11  142.74    8.50
   2   2  11  142.16    6.96
   2   2  11  133.77    8.46
  -2   4  10  135.30    8.62
  -2   4   9  188.30   11.03
  -2   4   9  221.95   11.47
  -2   4   8   75.30    5.60
  -2   4   8   71.28    6.18
  -2   4   8   63.13    6.35
  -2   4   7  210.73   11.42
   2   4  -7  195.05   11.24
  -2   4   7  231.87   10.85
  -2   4   7  197.49   12.04
   2   4  -6  574.85   25.35
  -2   4   6  565.12   21.58
  -2   4   6  542.02   20.26
  -2   4   6  558.08   21.06
   2   4  -6  482.62   20.70
  -2   4   6  485.30   22.09
  -2   4   5  177.85    9.89
   2   4  -5  154.82    9.75
  -2   4   5  183.70    7.20
   2   4  -5  177.03   12.83
  -2   4   5  173.63   10.48
  -2   4   5  183.48   10.39
  -2   4   4  172.04   10.10
  -2   4   4  160.65    7.91
  -2   4   4  131.47   10.39
   2   4  -4  167.80   12.36
  -2   4   4  164.97   10.23
  -2   4   3  745.40   26.22
  -2   4   3  800.88   28.50
  -2   4   3  719.32   29.64
   2   4  -3  829.94   30.62
  -2   4   2  601.88   23.21
   2   4  -2  567.80   20.87
  -2   4   2  575.66   24.68
  -2   4   2  656.86   24.56
   2   4  -2  596.50   24.78
  -2   4   2  589.07   23.78
   2   4  -1  279.56   11.76
  -2   4   1  270.62   15.39
  -2   4   1  289.27   15.14
  -2   4   1  260.18   14.67
  -2   4   1  304.55   13.13
   2   4  -1  297.49   15.38
   2   4  -1  271.63   11.08
   2   4   0  442.46   19.62
  -2   4   0  455.28   16.52
  -2   4   0  386.71   19.70
  -2   4   0  396.73   19.26
  -2   4   0  383.05   18.62
   2   4   0  432.08   19.57
  -2   4   0  428.97   20.02
   2   4   0  410.26   13.63
   2   4   0  415.07   15.27
   2   4   1  481.49   21.59
  -2   4  -1  518.16   21.56
  -2   4  -1  494.54   23.74
   2   4   1  512.30   21.42
  -2   4  -1  500.19   22.43
  -2   4  -1  495.92   22.63
  -2   4  -1  544.84   23.89
   2   4   1  511.04   21.97
  -2   4  -1  537.08   18.36
  -2   4  -1  488.82   16.44
  -2   4  -2  796.46   30.04
  -2   4  -2  697.11   27.60
   2   4   2  750.64   27.04
  -2   4  -2  782.87   30.44
  -2   4  -2  701.97   26.85
  -2   4  -2  755.77   30.73
   2   4   2  770.89   28.83
  -2   4  -2  736.05   24.45
  -2   4  -2  735.53   23.99
   2   4   3  137.33    9.77
  -2   4  -3  120.53    9.04
  -2   4  -3  142.01   10.44
  -2   4  -3  142.98   10.92
  -2   4  -3  135.54    7.87
  -2   4  -3  147.93   11.46
   2   4   3  145.94    8.69
  -2   4  -4  527.11   22.27
   2   4   4  554.25   22.33
   2   4   4  491.42   21.82
   2   4   4  549.60   22.80
  -2   4  -4  577.34   25.45
  -2   4  -4  586.09   24.23
  -2   4  -4  546.62   23.30
   2   4   4  556.67   20.31
   2   4   5  557.78   21.86
   2   4   5  552.36   20.16
  -2   4  -5  532.13   22.69
   2   4   5  485.95   21.29
  -2   4  -5  558.23   22.98
  -2   4  -5  513.54   21.94
  -2   4  -5  546.32   23.64
  -2   4  -5  547.50   24.93
   2   4   6  297.98   14.22
   2   4   6  249.48   13.77
   2   4   6  293.48   13.43
  -2   4  -6  276.27   14.46
  -2   4  -6  305.01   15.51
  -2   4  -6  296.13   15.13
  -2   4  -6  315.60   16.47
  -2   4  -6  299.83   17.14
   2   4   6  314.08   14.04
   2   4   7   46.61    4.68
   2   4   7   38.96    4.76
  -2   4  -7   47.08    6.63
  -2   4  -7   41.66    5.92
   2   4   8  352.51   14.62
  -2   4  -8  345.91   18.24
   2   4   9  144.03    8.48
  -2   4  -9  142.45   11.20
   2   4   9  142.41    8.39
   2   6  -7  120.96    8.97
  -2   6   7  111.85    8.25
  -2   6   7  122.81    8.09
  -2   6   6   75.83    6.38
   2   6  -6   74.89    6.04
   2   6  -6   85.41    7.38
  -2   6   5  189.39   11.64
  -2   6   5  219.68   11.66
   2   6  -5  210.92   10.67
   2   6  -5  225.83   12.52
  -2   6   4   70.60    6.33
   2   6  -4   74.44    6.88
  -2   6   4   63.95    6.51
   2   6  -4   73.87    5.60
   2   6  -3   45.47    3.60
   2   6  -3   46.04    4.22
  -2   6   3   35.19    4.88
   2   6  -3   49.29    5.57
  -2   6   2  408.38   18.33
   2   6  -2  424.05   18.19
   2   6  -2  401.06   15.34
   2   6  -2  396.67   12.73
   2   6  -1  102.19    8.28
  -2   6   1   98.37    7.76
  -2   6   1   86.31    7.59
  -2   6   1   94.84    6.51
   2   6  -1   95.26    7.60
  -2   6   1  102.89    8.47
  -2   6   0   23.83    4.45
   2   6   0   24.44    4.01
  -2   6   0   22.50    3.03
  -2   6   0   24.33    4.04
  -2   6   0   21.64    3.91
   2   6   0   24.71    4.11
  -2   6   0   20.48    4.11
  -2   6  -1  358.88   16.27
  -2   6  -1  375.65   18.66
   2   6   1  398.41   17.21
  -2   6  -1  353.64   16.88
  -2   6  -1  415.99   15.20
   2   6   1  398.04   17.46
  -2   6  -1  369.58   17.90
  -2   6  -2  150.91    9.40
   2   6   2  157.55    9.86
  -2   6  -2  153.53   11.11
  -2   6  -2  143.34    7.67
   2   6   2  152.07    9.18
   2   6   2  131.66    9.46
   2   6   3   50.34    4.93
  -2   6  -3   47.82    6.56
  -2   6  -3   44.06    4.91
  -2   6  -3   42.32    3.05
   2   6   3   46.33    5.18
  -2   6  -3   43.33    3.99
  -2   6  -4  331.29   13.08
   2   6   4  323.07   13.80
   2   6   4  325.84   15.25
  -2   6  -4  350.93   18.05
  -2   6  -4  311.43   14.93
  -2   6  -4  321.19   11.97
   2   6   5   42.57    5.10
  -2   6  -5   45.90    4.07
  -2   6  -5   48.14    4.38
  -2   6  -5   42.69    6.11
   2   6   6  103.53    6.39
   2   6   6   95.31    7.64
  -2   6  -6  121.60   10.03
  -2   6  -6  108.64    6.84
  -2   6  -7  110.48    7.06
   2   6   7  109.43    6.60
   2   6   7   94.09    7.43
  -2   6  -7  107.63    9.41
  -2   8   2   56.32    5.75
   2   8  -2   69.85    5.83
  -2   8   1   94.45    7.69
   2   8  -1   85.78    6.56
  -2   8   1   87.98    7.04
  -2   8   0  156.34   10.48
  -2   8   0  186.10    8.60
   2   8   0  169.28    9.58
   2   8   1   23.48    3.56
  -2   8  -1   28.64    4.55
   2   8   2  198.06   10.47
  -2   8  -2  188.92   11.95
  -3  -7   5   43.80    5.23
   3  -7  -5   44.48    5.55
  -3  -7   5   53.47    5.42
   3  -7  -5   45.48    5.64
  -3  -7   4  132.71    8.59
   3  -7  -4  115.06    8.73
   3  -7  -4  112.68    8.66
   3  -7  -4  109.32    6.67
  -3  -7   4  119.96    8.72
   3  -7  -3  128.30    9.29
  -3  -7   3  138.40    9.52
  -3  -7   3  139.63    8.83
   3  -7  -3  117.33    8.94
   3  -7  -3  120.91    6.83
  -3  -7   2   26.82    4.00
   3  -7  -2   22.07    3.99
   3  -7  -2   22.44    4.07
   3  -7  -2   24.34    2.84
   3  -7  -1   39.16    4.89
  -3  -7   1   52.25    5.04
   3  -7  -1   42.91    4.98
  -3  -7   0  286.78   12.43
   3  -7   0  280.54   12.46
   3  -7   1   68.51    5.76
  -3  -7  -1   69.99    5.17
   3  -7   1   60.47    5.85
   3  -7   2   16.97    3.22
  -3  -7  -2   19.41    2.57
   3  -7   2   18.51    3.25
  -3  -7  -2   16.51    3.62
   3  -7   3  126.91    8.45
  -3  -7  -3  134.74    6.29
   3  -7   3  143.05    8.87
   3  -7   3  119.14    8.83
  -3  -7  -3  119.80    9.29
   3  -7   4  125.14    8.35
   3  -7   4  108.76    8.16
   3  -7   4  111.68    7.83
  -3  -7  -4  118.59    9.12
  -3  -7  -5   30.73    4.71
   3  -7   5   29.78    4.35
   3  -7   5   36.82    4.56
  -3  -5   8   32.36    3.62
   3  -5  -8   34.45    4.82
  -3  -5   8   37.66    3.90
  -3  -5   7  357.76   14.11
   3  -5  -7  338.22   16.95
  -3  -5   7  331.92   14.21
   3  -5  -7  320.21   16.52
  -3  -5   6   46.49    4.73
  -3  -5   6   44.62    5.30
   3  -5  -6   37.86    5.29
   3  -5  -6   46.86    5.03
   3  -5  -6   36.10    5.21
  -3  -5   6   49.30    4.26
  -3  -5   5   52.52    5.81
  -3  -5   5   51.25    5.32
   3  -5  -5   48.04    6.04
  -3  -5   5   41.46    5.82
  -3  -5   5   61.15    5.11
   3  -5  -5   49.85    5.02
   3  -5  -5   50.24    6.11
  -3  -5   5   67.18    6.47
  -3  -5   4  640.62   27.55
   3  -5  -4  748.09   28.87
   3  -5  -4  678.01   26.21
  -3  -5   4  681.73   26.96
   3  -5  -4  650.03   27.10
   3  -5  -4  745.09   28.32
   3  -5  -4  657.32   27.34
  -3  -5   4  763.20   27.61
   3  -5  -4  657.18   21.55
   3  -5  -4  671.24   24.23
  -3  -5   4  768.38   24.89
   3  -5  -3  199.46   12.60
  -3  -5   3  193.47   12.80
   3  -5  -3  190.27   12.24
  -3  -5   3  229.51   11.09
  -3  -5   3  198.29   12.52
   3  -5  -3  196.29    7.54
   3  -5  -3  204.11   10.08
   3  -5  -3  199.63   11.74
  -3  -5   2  431.08   21.38
  -3  -5   2  521.35   21.21
   3  -5  -2  482.42   21.41
  -3  -5   2  490.44   20.54
   3  -5  -2  467.40   20.12
   3  -5  -2  471.77   21.19
   3  -5  -2  466.14   13.65
   3  -5  -2  486.87   21.11
   3  -5  -1  542.68   23.41
  -3  -5   1  636.19   23.46
  -3  -5   1  552.18   24.40
   3  -5  -1  549.00   22.48
   3  -5  -1  593.21   23.46
   3  -5  -1  519.06   23.08
   3  -5  -1  521.07   18.75
   3  -5  -1  607.51   21.75
  -3  -5   1  524.81   22.51
  -3  -5   0  537.22   20.69
   3  -5   0  508.67   19.98
  -3  -5   0  457.71   20.57
  -3  -5   0  453.30   19.86
   3  -5   0  505.79   20.71
  -3  -5   0  469.71   22.18
  -3  -5   0  524.83   20.14
   3  -5   0  453.51   20.09
   3  -5   0  465.31   20.02
  -3  -5  -1  622.07   22.62
   3  -5   1  582.50   22.52
  -3  -5  -1  535.01   22.73
  -3  -5  -1  605.30   21.66
   3  -5   1  517.01   22.34
   3  -5   1  593.17   22.31
  -3  -5  -1  509.80   23.45
  -3  -5  -1  557.74   22.62
   3  -5   1  520.73   21.76
   3  -5   2  172.20   10.67
  -3  -5  -2  161.66    8.59
   3  -5   2  158.70   10.06
   3  -5   2  147.44    9.58
  -3  -5  -2  167.50   10.15
   3  -5   2  165.15    9.56
  -3  -5  -2  145.20   10.69
  -3  -5  -2  155.33   10.06
  -3  -5  -2  136.84    9.79
   3  -5   3   70.96    7.02
  -3  -5  -3   86.63    5.23
  -3  -5  -3   70.22    7.21
   3  -5   3   80.97    6.17
   3  -5   3   64.01    6.26
  -3  -5  -3   77.29    4.69
  -3  -5  -3   80.86    6.96
   3  -5   3   76.03    7.19
  -3  -5  -3   77.71    6.92
  -3  -5  -3   77.79    7.12
   3  -5   4  638.86   24.62
   3  -5   4  726.97   26.79
  -3  -5  -4  628.10   25.40
  -3  -5  -4  658.96   19.58
  -3  -5  -4  623.25   21.28
  -3  -5  -4  699.19   25.40
   3  -5   4  717.85   23.15
   3  -5   4  643.47   25.52
  -3  -5  -4  602.69   24.50
  -3  -5  -4  637.32   25.37
  -3  -5  -4  620.04   26.26
   3  -5   5   15.36    3.54
  -3  -5  -5   10.82    3.05
   3  -5   5   13.14    1.57
   3  -5   5   10.49    3.03
  -3  -5  -5   11.84    3.30
   3  -5   5   10.67    2.86
   3  -5   5   11.49    2.35
  -3  -5  -5    9.76    2.80
  -3  -5  -6   10.14    3.17
  -3  -5  -6   14.39    2.41
  -3  -5  -6    8.19    2.80
   3  -5   6   13.00    3.03
   3  -5   6   14.06    2.26
  -3  -5  -7  284.06   15.97
   3  -5   7  287.42   13.59
   3  -5   7  318.38   11.35
  -3  -5  -7  294.44   14.21
  -3  -5  -7  289.02   12.82
   3  -5   8   28.74    4.04
   3  -5   8   27.07    2.45
   3  -5   8   24.58    3.59
  -3  -5  -8   22.21    3.72
  -3  -5  -8   20.61    3.10
  -3  -3  10    8.65    2.35
   3  -3 -10    5.97    2.42
  -3  -3  10    8.46    2.74
  -3  -3  10    6.48    2.02
  -3  -3  10    8.31    2.22
   3  -3 -10    9.02    2.77
   3  -3  -9   70.52    6.65
  -3  -3   9   76.89    6.28
  -3  -3   9   86.59    6.56
  -3  -3   9   59.78    6.09
  -3  -3   9   75.19    5.82
   3  -3  -9   74.01    6.86
  -3  -3   8  430.80   17.37
   3  -3  -8  366.26   17.79
  -3  -3   8  418.01   17.52
  -3  -3   8  385.91   18.00
  -3  -3   8  390.78   16.29
   3  -3  -8  379.56   18.12
   3  -3  -7   20.29    3.78
  -3  -3   7   22.45    3.51
  -3  -3   7   30.57    4.02
   3  -3  -7   32.28    4.80
   3  -3  -7   20.65    4.63
  -3  -3   7   33.11    4.58
  -3  -3   7   27.42    4.52
   3  -3  -7   23.39    4.15
   3  -3  -6  611.97   25.40
  -3  -3   6  609.71   23.50
   3  -3  -6  610.34   24.93
  -3  -3   6  674.80   23.71
  -3  -3   6  607.25   25.41
   3  -3  -6  558.96   24.14
   3  -3  -6  694.05   27.64
  -3  -3   5  270.25   13.96
   3  -3  -5  270.26   14.55
   3  -3  -5  300.20   16.95
   3  -3  -5  260.17   14.82
   3  -3  -5  264.41   14.26
  -3  -3   5  299.36   13.46
  -3  -3   4  208.83   10.49
   3  -3  -4  196.29   12.56
   3  -3  -4  178.02   11.49
   3  -3  -4  213.38   13.95
   3  -3  -4  192.33   11.77
  -3  -3   4  182.48   12.09
  -3  -3   4  200.27   11.99
  -3  -3   4  188.87   12.94
   3  -3  -3 1096.00   39.73
  -3  -3   3 1042.83   32.37
   3  -3  -3  977.47   34.06
  -3  -3   3  980.81   36.70
   3  -3  -2   27.69    5.64
  -3  -3   2   34.80    3.25
  -3  -3   2   28.42    4.73
  -3  -3   2   23.77    4.34
   3  -3  -2   27.15    3.41
  -3  -3   1   64.19    6.83
   3  -3  -1   78.66    5.18
   3  -3  -1   79.66    5.24
   3  -3   0 2414.84   68.54
   3  -3   0 2576.72   75.01
   3  -3   0 2332.12   73.26
  -3  -3   0 2387.47   73.95
  -3  -3   0 2576.56   73.08
  -3  -3   0 2405.56   74.83
   3  -3   0 2525.40   74.29
   3  -3   0 2403.59   66.81
  -3  -3  -1   33.44    5.16
   3  -3   1   45.22    5.27
  -3  -3  -1   33.81    4.97
  -3  -3  -1   41.25    4.34
  -3  -3  -1   40.34    4.92
   3  -3   1   37.54    4.59
   3  -3   1   41.86    5.53
   3  -3   2  400.54   17.70
   3  -3   2  449.48   20.27
   3  -3   2  434.27   17.30
  -3  -3  -2  419.36   18.17
  -3  -3  -2  387.55   16.32
  -3  -3  -2  380.93   19.07
  -3  -3  -2  387.47   18.63
  -3  -3  -3 1271.99   40.02
  -3  -3  -3 1116.10   39.93
  -3  -3  -3 1125.74   37.25
  -3  -3  -3 1154.48   41.08
   3  -3   3 1195.62   36.56
  -3  -3  -3 1135.49   38.23
   3  -3   3 1222.36   42.34
  -3  -3  -4  270.06   15.20
   3  -3   4  303.79   12.00
  -3  -3  -4  287.37   14.04
   3  -3   4  286.06   15.40
  -3  -3  -4  302.62   16.47
  -3  -3  -4  288.15   15.23
  -3  -3  -4  336.77   15.60
   3  -3   4  337.29   17.25
  -3  -3  -5  117.14    9.31
  -3  -3  -5  121.01    8.31
  -3  -3  -5  130.60    9.12
   3  -3   5  130.48    6.22
   3  -3   5  129.97    8.93
  -3  -3  -5  112.54    9.57
   3  -3   5  122.55    8.61
  -3  -3  -5  116.04    9.03
  -3  -3  -5  126.55    8.83
   3  -3   6  493.30   20.67
  -3  -3  -6  398.08   19.54
  -3  -3  -6  394.08   18.82
  -3  -3  -6  411.21   17.67
  -3  -3  -6  469.36   19.09
  -3  -3  -6  401.22   20.27
   3  -3   6  451.49   14.21
   3  -3   6  408.22   18.15
   3  -3   6  433.62   18.61
   3  -3   7   39.99    4.77
  -3  -3  -7   34.87    5.10
   3  -3   7   43.36    5.27
  -3  -3  -7   23.62    4.55
  -3  -3  -7   28.62    4.00
   3  -3   7   33.69    2.38
   3  -3   7   30.50    4.30
  -3  -3  -7   31.08    4.52
  -3  -3  -8  150.66   10.81
   3  -3   8  176.99   10.40
   3  -3   8  183.80   10.54
  -3  -3  -8  183.16   10.43
  -3  -3  -8  157.25    9.34
   3  -3   8  185.02    6.36
   3  -3   9   44.43    4.75
  -3  -3  -9   42.24    4.45
   3  -3   9   46.81    2.25
   3  -3   9   41.91    4.80
  -3  -3  -9   38.59    5.25
   3  -3   9   43.71    2.28
  -3  -3 -10   13.49    3.36
  -3  -3 -10   10.71    2.43
   3  -3  10   10.66    2.42
   3  -3  10   12.21    2.73
  -3  -1  11  109.39    7.55
  -3  -1  11  112.33    6.48
   3  -1 -11  100.00    7.90
  -3  -1  11  101.56    7.37
  -3  -1  11   99.55    6.88
   3  -1 -10  171.66   10.94
  -3  -1  10  168.80    9.75
  -3  -1  10  198.58   10.89
  -3  -1  10  194.20   10.72
  -3  -1  10  185.79    9.22
  -3  -1   9   21.85    3.18
   3  -1  -9   22.43    3.97
  -3  -1   9   20.71    3.68
  -3  -1   9   21.28    3.66
  -3  -1   9   19.45    3.54
   3  -1  -8  338.09   16.89
   3  -1  -8  280.18   14.35
  -3  -1   8  326.93   15.45
   3  -1  -8  286.80   15.22
   3  -1  -8  335.19   17.05
  -3  -1   8  308.32   15.12
  -3  -1   8  308.78   14.97
   3  -1  -7  404.52   19.27
  -3  -1   7  435.14   19.30
   3  -1  -7  399.40   18.55
  -3  -1   7  481.03   19.80
   3  -1  -7  475.25   21.33
  -3  -1   7  397.34   19.71
  -3  -1   7  487.29   19.95
   3  -1  -7  453.13   21.20
   3  -1  -6  198.68   12.42
   3  -1  -6  207.42   12.05
  -3  -1   6  215.98   12.65
  -3  -1   6  254.36   13.23
  -3  -1   6  230.01   12.99
   3  -1  -6  228.08   13.95
  -3  -1   6  216.09   13.33
   3  -1  -6  233.06   14.55
  -3  -1   5  239.11   13.51
  -3  -1   5  210.24   13.77
  -3  -1   5  242.71   13.36
   3  -1  -5  265.68   15.23
   3  -1  -5  280.02   16.34
   3  -1  -4 3109.97   96.35
  -3  -1   4 2842.38   95.91
  -3  -1   4 2891.76   96.63
   3  -1  -3  769.21   29.26
   3  -1  -3  708.51   28.69
   3  -1  -3  737.79   24.80
  -3  -1   3  766.11   28.82
  -3  -1   3  649.34   30.12
   3  -1  -2 2079.19   62.79
   3  -1  -2 2152.42   61.94
   3  -1  -2 2242.76   69.54
  -3  -1   2 2102.78   67.57
   3  -1  -2 2016.19   64.09
  -3  -1   1 2492.19   76.04
   3  -1  -1 2470.68   73.62
  -3  -1   1 2543.33   72.64
   3  -1  -1 2422.84   70.95
  -3  -1   0 3001.92   82.83
   3  -1   0 2970.60   82.19
  -3  -1   0 3045.96   82.71
   3  -1   0 2839.77   82.27
  -3  -1  -1 1666.17   53.47
   3  -1   1 1663.45   48.63
  -3  -1  -1 1633.29   47.64
   3  -1   1 1749.72   46.57
   3  -1   1 1610.55   50.66
  -3  -1  -1 1634.41   54.41
   3  -1   1 1634.21   47.11
   3  -1   1 1669.59   50.48
  -3  -1  -1 1708.21   50.20
  -3  -1  -2  594.90   22.92
  -3  -1  -2  640.20   22.03
  -3  -1  -2  624.08   25.94
   3  -1   2  568.53   21.91
  -3  -1  -2  592.70   25.91
  -3  -1  -2  624.04   22.20
  -3  -1  -3  463.95   15.94
  -3  -1  -3  458.97   17.77
   3  -1   3  467.68   20.72
  -3  -1  -3  467.24   20.00
  -3  -1  -3  483.73   19.78
  -3  -1  -3  469.24   20.52
  -3  -1  -3  510.44   18.64
  -3  -1  -3  455.25   21.83
  -3  -1  -4 2278.51   69.71
  -3  -1  -4 2288.37   64.84
   3  -1   4 2404.18   69.28
  -3  -1  -4 2303.96   69.53
  -3  -1  -4 2376.49   70.69
  -3  -1  -4 2196.02   72.34
   3  -1   4 2108.96   69.56
  -3  -1  -4 2349.29   66.84
   3  -1   4 2353.55   70.52
  -3  -1  -4 2307.53   65.80
  -3  -1  -5  160.35   10.51
  -3  -1  -5  154.00   11.49
  -3  -1  -5  156.04    8.39
  -3  -1  -5  159.38   10.34
  -3  -1  -5  164.21   11.05
  -3  -1  -5  156.17    8.23
  -3  -1  -5  162.08    8.96
  -3  -1  -5  160.40   12.07
   3  -1   5  175.33   10.81
   3  -1   5  168.05   10.27
   3  -1   6  184.67   10.81
  -3  -1  -6  168.97   10.85
   3  -1   6  184.91    6.22
   3  -1   6  190.77   10.98
  -3  -1  -6  166.53   11.39
  -3  -1  -6  178.64   12.85
  -3  -1  -6  179.29    8.82
  -3  -1  -7  588.72   24.18
   3  -1   7  640.73   24.08
  -3  -1  -7  638.67   24.09
   3  -1   7  642.06   18.33
  -3  -1  -7  610.14   25.58
  -3  -1  -7  600.59   25.30
   3  -1   7  655.13   23.58
  -3  -1  -8  163.28   10.30
  -3  -1  -8  167.71    9.91
   3  -1   8  170.16   10.13
   3  -1   8  168.59    6.27
  -3  -1  -8  174.62   11.40
  -3  -1  -8  167.67   11.09
   3  -1   8  188.73    9.81
  -3  -1  -8  166.44   11.18
  -3  -1  -8  144.52   11.09
  -3  -1  -9   59.10    6.26
   3  -1   9   60.86    4.98
   3  -1   9   56.20    5.55
  -3  -1  -9   67.51    5.74
  -3  -1  -9   54.73    6.18
   3  -1  10  218.09    9.99
  -3  -1 -10  229.63   10.49
   3  -1  10  234.67   11.62
   3  -1  10  218.56    7.18
  -3  -1 -10  219.18   12.59
  -3  -1 -10  213.23   12.48
  -3  -1 -10  205.77   10.72
  -3  -1 -11   51.22    5.72
  -3  -1 -11   57.68    4.60
  -3  -1 -11   50.31    5.61
   3  -1  11   51.27    4.96
   3  -1  11   53.94    4.13
   3   1 -11  103.35    6.54
  -3   1  11  106.31    7.63
  -3   1  11  104.92    5.27
  -3   1  11   98.45    7.00
   3   1 -11  111.14    8.22
  -3   1  11  107.94    7.56
   3   1 -10  183.52    9.46
  -3   1  10  192.93    8.25
  -3   1  10  192.74   10.86
  -3   1  10  218.43   11.53
  -3   1  10  188.62   10.43
   3   1 -10  186.38   11.52
   3   1  -9   14.87    2.71
  -3   1   9   22.56    3.89
  -3   1   9   13.10    3.14
  -3   1   9   20.53    2.57
   3   1  -9   18.43    3.64
  -3   1   9   21.25    3.59
   3   1  -9   19.86    4.15
   3   1  -8  285.28   13.04
  -3   1   8  342.46   15.84
   3   1  -8  276.86   14.15
  -3   1   8  300.79   14.87
   3   1  -8  317.24   16.05
   3   1  -8  312.72   16.61
   3   1  -8  289.96   15.19
  -3   1   8  281.25   14.66
  -3   1   7  604.41   23.30
   3   1  -7  549.49   23.65
  -3   1   7  538.15   22.19
  -3   1   7  499.38   22.51
   3   1  -7  533.50   24.09
   3   1  -6  297.70   16.13
  -3   1   6  303.60   12.62
  -3   1   6  279.76   14.50
   3   1  -6  264.76   12.54
   3   1  -6  273.22   15.93
  -3   1   6  266.17   15.32
   3   1  -5  207.39   13.63
   3   1  -5  204.44   12.08
   3   1  -5  238.50   14.47
  -3   1   5  224.03   10.33
   3   1  -5  193.83   10.23
   3   1  -4 2874.87   90.07
  -3   1   4 3269.94   86.72
   3   1  -4 3144.63   94.54
   3   1  -4 3028.15   93.38
   3   1  -3  813.98   31.14
   3   1  -3  863.12   33.57
  -3   1   3  930.82   27.95
  -3   1   3  912.05   32.16
  -3   1   3  894.47   32.19
   3   1  -2 2039.74   62.53
  -3   1   2 2112.51   62.50
  -3   1   2 2094.74   62.37
   3   1  -2 2176.08   65.31
  -3   1   1 2627.27   73.17
  -3   1   1 2446.99   79.75
   3   1  -1 2526.16   74.68
  -3   1   1 2398.12   79.10
  -3   1   1 2641.13   73.26
   3   1  -1 2707.34   79.31
  -3   1   0 3278.07   95.66
  -3   1   0 2866.53   93.43
  -3   1   0 3262.23   90.64
  -3   1   0 3477.95   93.43
   3   1   0 3313.39   95.25
  -3   1   0 2974.85   94.72
  -3   1   0 3286.48   90.74
   3   1   0 3276.51   96.26
   3   1   0 3314.34   90.77
   3   1   0 3299.63   90.70
   3   1   1 1855.84   56.91
   3   1   1 1814.19   51.13
  -3   1  -1 1727.53   53.14
  -3   1  -1 1793.25   58.99
   3   1   1 1895.68   53.08
  -3   1  -1 1734.55   56.82
  -3   1  -1 1811.89   54.05
  -3   1  -1 1780.25   54.28
   3   1   1 1830.52   51.20
  -3   1  -1 1789.97   50.17
  -3   1  -1 1791.80   52.84
   3   1   1 1811.22   52.81
  -3   1  -1 1789.32   51.02
  -3   1  -2  657.21   23.62
  -3   1  -2  690.73   20.05
  -3   1  -2  656.82   26.93
   3   1   2  687.98   24.02
  -3   1  -2  675.12   26.06
   3   1   2  691.47   19.90
  -3   1  -2  638.18   26.81
   3   1   2  652.95   23.20
   3   1   2  681.02   23.94
  -3   1  -2  730.39   28.83
  -3   1  -2  634.37   26.48
  -3   1  -2  597.80   22.67
   3   1   2  624.50   26.75
  -3   1  -2  627.57   24.27
   3   1   3  492.72   17.77
   3   1   3  449.22   19.30
  -3   1  -3  486.22   20.53
  -3   1  -3  532.86   22.96
   3   1   3  516.62   20.17
  -3   1  -3  496.82   21.90
  -3   1  -3  485.40   20.81
  -3   1  -3  466.01   18.44
  -3   1  -3  479.58   20.25
   3   1   3  509.50   20.04
  -3   1  -3  479.97   21.71
   3   1   3  501.96   22.26
  -3   1  -4 2285.89   72.11
  -3   1  -4 2441.63   72.42
   3   1   4 2342.54   70.19
  -3   1  -4 2269.84   72.25
  -3   1  -4 2445.06   71.63
  -3   1  -4 2365.89   63.72
   3   1   4 2351.08   68.58
   3   1   4 2134.07   66.26
  -3   1  -4 2449.10   73.28
  -3   1  -4 2559.34   72.83
   3   1   4 2470.90   72.90
  -3   1  -5  174.61   11.49
  -3   1  -5  150.59    7.00
   3   1   5  154.12    9.93
  -3   1  -5  170.96   10.58
  -3   1  -5  156.19   10.72
   3   1   5  158.00    8.81
  -3   1  -5  163.74   11.31
   3   1   5  152.68    7.97
  -3   1  -5  156.64   11.29
  -3   1  -5  157.29   10.46
   3   1   5  165.95   10.91
   3   1   6  163.51   10.55
  -3   1  -6  163.67   10.89
   3   1   6  173.82   10.51
  -3   1  -6  181.99   10.50
   3   1   6  172.89    8.46
  -3   1  -6  179.86   12.12
  -3   1  -6  169.32   11.57
   3   1   6  163.73   10.74
  -3   1  -6  157.19   10.82
  -3   1  -6  175.18    7.96
  -3   1  -7  678.52   21.69
  -3   1  -7  678.63   23.98
  -3   1  -7  600.52   25.38
   3   1   7  654.12   24.97
   3   1   7  697.02   25.28
   3   1   7  615.84   21.57
   3   1   7  689.99   25.76
  -3   1  -7  694.87   27.53
  -3   1  -7  676.62   27.10
  -3   1  -7  631.66   26.21
  -3   1  -8  166.72   11.11
  -3   1  -8  167.97   10.42
  -3   1  -8  170.34   11.72
  -3   1  -8  174.29   11.61
  -3   1  -8  170.48   10.81
   3   1   8  178.69   10.33
  -3   1  -8  169.95    8.15
  -3   1  -8  160.46    8.91
   3   1   8  156.92    9.97
  -3   1  -8  179.93   11.84
  -3   1  -8  175.19   11.24
  -3   1  -9   69.89    4.76
  -3   1  -9   57.57    6.26
   3   1   9   66.08    5.97
  -3   1  -9   62.55    6.77
   3   1   9   58.15    5.59
  -3   1  -9   53.75    5.85
  -3   1 -10  217.00   13.03
   3   1  10  228.35   11.68
   3   1  10  236.15   11.75
  -3   1 -10  228.84   13.00
   3   1  11   61.91    5.39
   3   1  11   56.93    5.27
  -3   1 -11   59.98    6.30
   3   1  11   61.02    3.67
  -3   1 -11   57.15    6.10
   3   3 -10    9.68    2.45
   3   3 -10    6.78    3.49
  -3   3  10    7.95    2.37
  -3   3  10   13.28    3.05
   3   3  -9   79.38    6.27
  -3   3   9   80.82    5.58
   3   3  -9   86.81    8.74
  -3   3   9   79.66    6.85
  -3   3   9   76.52    2.97
  -3   3   8  444.31   15.85
   3   3  -8  455.78   21.68
  -3   3   8  379.89   12.09
  -3   3   8  394.81   18.03
   3   3  -7   45.55    6.62
  -3   3   7   41.53    4.59
   3   3  -7   44.68    5.15
  -3   3   7   34.66    5.16
   3   3  -7   36.62    5.82
  -3   3   7   36.08    2.53
   3   3  -7   48.42    6.93
  -3   3   7   44.45    4.90
  -3   3   7   38.96    3.95
  -3   3   6  655.86   24.45
  -3   3   6  670.59   24.15
  -3   3   6  694.15   22.85
   3   3  -6  620.53   24.78
   3   3  -6  714.60   29.30
   3   3  -6  702.06   29.09
  -3   3   6  581.02   19.57
  -3   3   5  249.92   10.11
  -3   3   5  272.35   13.53
  -3   3   5  247.55    8.56
   3   3  -5  287.36   16.55
  -3   3   5  295.98   12.57
  -3   3   5  259.25   13.04
   3   3  -5  231.67   13.08
   3   3  -5  281.41   16.71
  -3   3   4  209.33   11.43
  -3   3   4  187.10    8.97
  -3   3   4  204.80   11.44
   3   3  -4  190.45   11.38
   3   3  -4  217.07   14.44
  -3   3   4  206.55   13.32
  -3   3   4  199.52    8.82
   3   3  -4  212.58   13.98
  -3   3   3 1043.54   34.64
  -3   3   3 1144.97   37.76
   3   3  -3 1046.94   35.41
   3   3  -3 1239.37   42.70
   3   3  -3 1154.17   40.93
  -3   3   3 1167.41   37.48
  -3   3   2   32.61    4.45
  -3   3   2   32.67    4.13
  -3   3   2   31.41    4.70
   3   3  -2   29.96    5.04
   3   3  -2   34.43    3.56
   3   3  -2   34.98    5.49
   3   3  -2   30.41    5.14
  -3   3   1   55.69    5.96
   3   3  -1   66.29    7.14
  -3   3   1   61.88    6.53
   3   3  -1   54.41    3.72
  -3   3   1   68.28    7.10
   3   3  -1   61.52    6.83
   3   3  -1   60.48    7.17
  -3   3   1   57.35    6.20
   3   3  -1   64.24    5.66
  -3   3   1   55.15    5.82
  -3   3   0 2844.62   82.69
   3   3   0 2724.30   82.03
   3   3   0 2806.29   80.99
   3   3   0 2696.69   72.96
  -3   3   0 2775.85   82.06
  -3   3   0 2523.34   80.73
   3   3   0 2735.78   77.45
   3   3   0 2799.52   83.47
  -3   3   0 2812.76   82.25
   3   3   0 2735.79   81.71
  -3   3   0 2700.87   77.25
  -3   3  -1   26.39    4.64
  -3   3  -1   28.39    3.58
  -3   3  -1   23.29    3.84
   3   3   1   32.68    4.40
  -3   3  -1   36.09    2.37
  -3   3  -1   29.24    4.81
  -3   3  -1   22.66    4.51
   3   3   1   28.82    4.85
   3   3   1   36.83    3.74
   3   3   1   29.53    4.58
   3   3   1   28.99    4.39
   3   3   2  436.06   18.37
  -3   3  -2  415.48   17.04
   3   3   2  391.44   14.64
   3   3   2  430.64   17.16
  -3   3  -2  395.28   19.78
  -3   3  -2  411.55   19.60
  -3   3  -2  407.56   16.82
   3   3   2  441.14   20.14
  -3   3  -2  412.55   19.83
  -3   3  -2  409.59   13.63
   3   3   3 1223.11   40.69
   3   3   3 1184.55   39.04
   3   3   3 1168.85   39.20
   3   3   3 1159.68   36.72
   3   3   3 1099.58   36.18
  -3   3  -3 1221.41   41.03
  -3   3  -3 1234.78   40.59
   3   3   3 1180.98   41.18
  -3   3  -3 1240.37   42.77
  -3   3  -3 1189.65   39.05
   3   3   4  272.76   14.00
   3   3   4  312.39   14.42
  -3   3  -4  287.67   17.05
  -3   3  -4  267.97   14.81
   3   3   4  298.05   13.24
   3   3   4  285.00   15.23
   3   3   4  265.74   13.84
  -3   3  -4  288.18   15.10
  -3   3  -4  297.37   16.82
   3   3   4  315.93   12.59
   3   3   4  320.29   15.48
  -3   3  -4  317.01   16.03
  -3   3  -5  116.62   10.05
   3   3   5  130.52    8.71
  -3   3  -5  123.69    9.32
   3   3   5  121.74    8.21
   3   3   5  125.72    8.04
  -3   3  -5  133.28    9.32
   3   3   5  114.17    8.22
  -3   3  -5  122.44    9.76
  -3   3  -5  136.54   10.93
   3   3   5  135.66    9.26
   3   3   6  438.12   18.61
  -3   3  -6  412.04   19.83
   3   3   6  440.90   18.24
  -3   3  -6  402.15   20.58
   3   3   6  375.91   16.91
   3   3   6  431.69   17.46
   3   3   6  435.76   17.69
  -3   3  -6  404.87   18.86
   3   3   7   23.51    3.60
  -3   3  -7   25.38    4.92
  -3   3  -7   30.98    5.51
  -3   3  -7   26.70    4.33
  -3   3  -7   29.63    4.40
   3   3   7   24.45    3.63
   3   3   7   22.84    3.45
  -3   3  -7   22.88    4.71
   3   3   7   27.49    3.98
   3   3   7   24.69    3.52
  -3   3  -8  206.61   12.76
  -3   3  -8  197.23   13.20
   3   3   8  187.77   10.31
  -3   3  -8  185.29   10.60
   3   3   8  178.44    9.69
  -3   3  -8  184.70   12.62
   3   3   9   37.22    4.26
  -3   3  -9   37.52    5.42
   3   3   9   38.74    4.00
  -3   3  -9   40.01    6.22
  -3   3 -10    8.55    3.06
  -3   3 -10   10.06    3.69
   3   3  10    9.99    2.34
   3   3  10    7.75    2.00
   3   3  10    9.74    2.48
  -3   5   8   38.03    4.47
  -3   5   8   34.50    4.66
   3   5  -8   36.92    6.09
  -3   5   7  400.05   14.69
  -3   5   7  395.15   15.97
  -3   5   7  362.74   16.72
   3   5  -7  394.06   19.21
  -3   5   6   39.40    4.66
  -3   5   6   37.58    4.03
   3   5  -6   36.09    4.17
   3   5  -6   37.45    5.97
   3   5  -6   46.56    5.96
  -3   5   5   69.36    4.44
  -3   5   5   63.39    5.88
   3   5  -5   62.85    5.39
  -3   5   5   53.86    6.21
   3   5  -5   63.64    7.31
   3   5  -5   64.12    6.92
  -3   5   4  804.60   27.66
  -3   5   4  697.49   28.56
  -3   5   4  811.26   28.27
   3   5  -4  784.78   31.03
   3   5  -4  809.27   30.69
   3   5  -4  718.49   25.68
   3   5  -4  779.45   29.96
   3   5  -3  229.87   14.06
  -3   5   3  202.99   12.53
   3   5  -3  203.39   10.47
  -3   5   3  212.64   11.61
  -3   5   3  226.42   12.05
   3   5  -3  230.84   13.34
   3   5  -3  217.92   13.47
   3   5  -2  545.75   18.97
  -3   5   2  536.10   21.92
   3   5  -2  583.47   24.64
   3   5  -2  503.36   18.47
   3   5  -2  574.90   23.93
  -3   5   2  524.18   22.55
  -3   5   2  578.13   22.37
   3   5  -2  575.38   23.33
   3   5  -2  570.23   23.48
  -3   5   2  594.90   22.35
  -3   5   1  584.37   22.84
   3   5  -1  564.87   23.45
  -3   5   1  561.05   22.40
  -3   5   1  547.41   22.99
   3   5  -1  552.09   23.79
   3   5  -1  527.90   18.03
   3   5  -1  530.71   17.78
  -3   5   1  513.70   22.25
   3   5  -1  611.93   23.57
   3   5  -1  601.29   23.70
  -3   5   1  556.43   23.34
  -3   5   0  526.20   22.54
  -3   5   0  519.90   21.69
  -3   5   0  486.51   22.22
   3   5   0  485.43   16.57
   3   5   0  525.60   21.95
  -3   5   0  473.61   20.92
  -3   5   0  533.17   22.27
  -3   5   0  543.14   18.05
   3   5   0  504.94   21.27
   3   5   0  531.86   22.09
   3   5   0  493.43   21.97
   3   5   0  510.32   16.06
  -3   5  -1  623.90   25.01
  -3   5  -1  576.39   18.65
  -3   5  -1  616.59   25.49
  -3   5  -1  571.81   25.53
   3   5   1  599.78   23.55
   3   5   1  594.02   23.22
  -3   5  -1  569.89   23.24
  -3   5  -1  629.19   19.84
  -3   5  -1  623.16   24.73
   3   5   1  628.39   24.62
   3   5   1  621.67   24.75
   3   5   2  176.13   10.23
  -3   5  -2  147.22   10.00
  -3   5  -2  164.88   12.04
  -3   5  -2  177.31   11.98
  -3   5  -2  172.48   11.37
   3   5   2  162.33    9.60
  -3   5  -2  169.11   11.15
  -3   5  -2  166.77    9.93
   3   5   2  152.10   10.30
  -3   5  -2  168.77    7.52
  -3   5  -2  157.81    7.48
  -3   5  -3   85.44    5.49
   3   5   3   86.06    6.39
  -3   5  -3   82.77    7.17
  -3   5  -3   93.72    8.74
  -3   5  -3   85.30    7.88
   3   5   3   76.66    7.11
   3   5   3   86.20    6.84
  -3   5  -3   91.14    5.23
  -3   5  -3   97.38    8.64
   3   5   3   88.98    7.58
   3   5   4  800.54   27.25
   3   5   4  779.52   25.81
   3   5   4  761.42   27.60
   3   5   4  764.49   27.82
   3   5   4  775.41   24.67
  -3   5  -4  763.76   29.91
  -3   5  -4  805.73   31.13
  -3   5  -4  716.98   27.90
  -3   5  -4  789.23   29.49
   3   5   4  658.90   27.13
   3   5   4  774.38   28.52
  -3   5  -4  757.62   24.33
  -3   5  -4  757.80   25.54
   3   5   5   18.20    3.18
  -3   5  -5   20.74    4.62
   3   5   5   15.97    2.51
   3   5   5   12.71    3.06
   3   5   5   12.86    2.49
  -3   5  -5    9.27    2.35
  -3   5  -5   17.15    2.65
   3   5   5   16.76    3.49
  -3   5  -5   17.10    3.86
   3   5   6   18.58    3.13
  -3   5  -6   20.44    4.05
   3   5   6   23.49    3.04
  -3   5  -6   26.31    5.01
   3   5   6   24.05    3.88
  -3   5  -6   23.73    3.51
   3   5   7  336.73   14.81
   3   5   7  345.74   13.85
  -3   5  -7  359.53   18.17
  -3   5  -8   21.17    4.65
   3   5   8   24.56    3.20
   3   5   8   25.47    3.76
   3   5   8   21.97    3.37
  -3   7   5   43.71    5.21
  -3   7   5   47.84    4.96
   3   7  -5   55.36    6.60
   3   7  -5   45.95    4.27
   3   7  -5   52.80    5.74
   3   7  -4  136.47    7.43
  -3   7   4  124.14    8.94
  -3   7   4  145.26    9.01
   3   7  -4  160.53    9.94
   3   7  -4  154.58   11.11
   3   7  -3  140.05    7.21
   3   7  -3  155.29   10.81
  -3   7   3  139.81    9.41
   3   7  -3  153.16    9.72
   3   7  -2   28.39    2.87
   3   7  -2   32.31    4.93
  -3   7   2   30.93    4.40
   3   7  -2   37.25    4.81
   3   7  -1   57.13    5.65
   3   7  -1   51.73    5.97
  -3   7   1   57.32    6.08
  -3   7   1   46.87    5.26
  -3   7   0  301.14   15.35
  -3   7   0  269.54   13.87
   3   7   0  307.37   14.56
   3   7   0  303.65   15.26
  -3   7  -1   84.01    7.68
   3   7   1   93.36    7.59
  -3   7  -1   77.68    6.61
  -3   7  -1   89.13    5.21
   3   7   1   94.98    7.34
  -3   7  -2   27.89    4.83
  -3   7  -2   24.50    2.61
   3   7   2   25.94    3.91
  -3   7  -3  165.53   11.30
   3   7   3  150.95    9.51
  -3   7  -3  161.12    7.22
  -3   7  -4  161.88   11.25
   3   7   4  159.33    9.39
   3   7   4  143.92    9.23
   3   7   5   28.59    3.76
   3   7   5   23.19    3.76
  -3   7  -5   23.71    4.70
   3   7   5   25.76    2.75
   3   7   5   28.90    4.07
   4  -6  -7   43.31    5.54
  -4  -6   7   48.84    4.68
  -4  -6   7   43.12    5.28
   4  -6  -7   48.62    5.73
  -4  -6   7   52.17    5.37
  -4  -6   6   97.25    8.23
  -4  -6   6   93.20    6.78
  -4  -6   6  106.09    7.82
   4  -6  -6   95.69    8.19
   4  -6  -6   90.90    7.77
  -4  -6   6  106.76    7.81
   4  -6  -6   96.08    5.25
   4  -6  -5   41.15    5.31
  -4  -6   5   51.70    6.00
   4  -6  -5   44.14    3.05
   4  -6  -5   44.57    5.66
  -4  -6   5   54.61    5.79
   4  -6  -5   50.37    4.59
  -4  -6   5   44.05    4.85
  -4  -6   5   63.21    6.02
   4  -6  -4  271.32   14.74
  -4  -6   4  270.76   14.05
   4  -6  -4  253.72   11.35
   4  -6  -4  255.85    8.79
  -4  -6   4  284.44   15.19
   4  -6  -4  259.63   14.08
  -4  -6   3   57.20    6.56
   4  -6  -3   60.04    6.38
  -4  -6   3   60.70    6.27
   4  -6  -3   51.61    6.08
   4  -6  -3   57.66    4.42
  -4  -6   3   67.14    6.41
  -4  -6   2   25.23    4.38
   4  -6  -2   20.88    3.97
  -4  -6   2   28.58    4.45
   4  -6  -2   26.23    4.41
   4  -6  -2   26.09    4.59
  -4  -6   1  465.72   21.25
   4  -6  -1  452.43   20.03
   4  -6  -1  441.53   15.41
  -4  -6   0   47.11    4.92
   4  -6   0   38.06    4.87
  -4  -6   0   33.38    5.20
   4  -6   0   37.72    4.72
  -4  -6   0   35.61    4.63
   4  -6   0   42.29    4.69
   4  -6   0   30.51    4.19
  -4  -6  -1   32.03    3.87
   4  -6   1   37.04    4.49
   4  -6   1   31.52    4.39
  -4  -6  -1   30.64    4.59
   4  -6   1   29.79    4.02
  -4  -6  -2  405.36   15.21
   4  -6   2  385.19   16.91
  -4  -6  -2  357.40   17.68
   4  -6   2  389.58   16.27
   4  -6   2  347.92   15.89
   4  -6   3   91.00    7.36
  -4  -6  -3   95.38    5.50
   4  -6   3   88.48    6.55
   4  -6   3   83.78    7.26
   4  -6   3   84.18    6.61
  -4  -6  -3   87.37    7.81
   4  -6   4  134.14    9.03
  -4  -6  -4  118.65    5.41
   4  -6   4  135.54    7.68
  -4  -6  -4  106.42    8.82
   4  -6   4  113.09    8.45
   4  -6   4  115.45    7.87
   4  -6   5  170.56   10.19
  -4  -6  -5  157.34   10.84
   4  -6   5  180.61    8.79
   4  -6   5  161.31    9.29
   4  -6   5  195.56   11.26
   4  -6   5  162.13    6.20
  -4  -6  -6   85.65    7.89
   4  -6   6   94.11    5.69
   4  -6   6  109.27    7.74
   4  -6   6  104.88    6.94
  -4  -6  -6   90.37    6.96
   4  -6   6  111.82    8.15
   4  -6   7  121.82    7.52
  -4  -6  -7  121.31    9.36
   4  -4  -9   51.05    5.71
  -4  -4   9   52.60    4.79
  -4  -4   9   63.64    5.24
  -4  -4   9   60.57    5.59
   4  -4  -9   45.74    5.42
  -4  -4   9   56.06    5.72
  -4  -4   8  177.76   10.33
  -4  -4   8  166.83    9.32
   4  -4  -8  154.88   10.27
  -4  -4   8  180.56    9.39
   4  -4  -8  153.38   10.46
  -4  -4   8  155.77   10.11
   4  -4  -7   68.04    7.01
   4  -4  -7   79.88    7.12
  -4  -4   7   82.25    5.94
   4  -4  -7   64.56    6.16
  -4  -4   7   84.29    6.55
  -4  -4   7   78.78    7.16
  -4  -4   6  129.30    8.65
   4  -4  -6  121.19    8.99
  -4  -4   6  145.59    7.87
   4  -4  -6  114.31    9.09
   4  -4  -6  119.10    8.33
  -4  -4   6  122.09    9.27
   4  -4  -6  117.73    8.49
   4  -4  -5  339.81   15.99
  -4  -4   5  348.17   17.75
  -4  -4   5  372.60   14.35
  -4  -4   5  341.56   16.09
   4  -4  -5  304.73   16.62
   4  -4  -5  347.07   17.04
   4  -4  -5  347.24   15.58
  -4  -4   5  358.11   16.80
   4  -4  -4  404.12   18.44
   4  -4  -4  417.51   19.91
   4  -4  -4  479.22   22.12
   4  -4  -4  483.93   21.81
   4  -4  -4  411.50   19.36
  -4  -4   4  482.12   16.39
  -4  -4   4  413.49   19.24
   4  -4  -4  417.86   17.49
   4  -4  -4  425.41   16.81
  -4  -4   4  429.73   20.76
   4  -4  -3  139.49    7.53
   4  -4  -3  151.62   11.44
  -4  -4   3  142.74    6.97
   4  -4  -3  129.13    9.97
  -4  -4   3  128.44   10.40
   4  -4  -3  135.89    9.83
  -4  -4   3  136.84    9.92
   4  -4  -3  130.24    9.13
  -4  -4   2  457.33   21.92
  -4  -4   2  461.38   20.11
   4  -4  -2  559.72   23.50
   4  -4  -2  458.90   19.91
   4  -4  -2  459.14   20.71
   4  -4  -2  519.25   22.71
   4  -4  -2  431.80   20.82
  -4  -4   2  532.56   19.93
   4  -4  -2  466.93   16.55
   4  -4  -2  460.56   16.89
   4  -4  -1  483.59   21.21
  -4  -4   1  415.37   20.79
   4  -4  -1  490.32   21.15
   4  -4  -1  431.54   18.90
   4  -4  -1  413.27   15.14
  -4  -4   1  509.92   19.07
   4  -4  -1  427.35   19.61
   4  -4  -1  431.13   14.93
  -4  -4   1  414.94   18.92
   4  -4   0  376.30   17.65
   4  -4   0  446.54   19.49
  -4  -4   0  390.10   18.16
   4  -4   0  426.33   19.23
  -4  -4   0  445.63   18.19
  -4  -4  -1  151.99    8.51
   4  -4   1  175.80   10.22
   4  -4   1  167.00   10.67
  -4  -4  -1  162.87   11.01
  -4  -4  -1  169.86    9.94
  -4  -4  -1  160.38   10.49
   4  -4   1  165.06   10.34
   4  -4   1  154.39   10.31
   4  -4   1  149.28    9.77
   4  -4   2  458.83   20.27
   4  -4   2  465.27   17.38
   4  -4   2  481.25   18.88
  -4  -4  -2  416.94   19.96
  -4  -4  -2  475.25   18.95
  -4  -4  -2  423.03   19.30
  -4  -4  -2  434.34   17.01
   4  -4   2  423.35   18.71
  -4  -4  -3  610.29   24.68
   4  -4   3  640.25   20.27
   4  -4   3  659.91   22.83
  -4  -4  -3  670.67   24.34
   4  -4   3  577.53   24.43
   4  -4   3  671.66   26.19
  -4  -4  -3  587.93   25.25
  -4  -4  -4  116.01    8.72
   4  -4   4  113.93    4.29
   4  -4   4  110.85    4.25
  -4  -4  -4  125.77    9.51
   4  -4   4  131.84    7.27
   4  -4   4  143.91   10.18
  -4  -4  -4  135.46    8.86
   4  -4   4  130.91    9.11
   4  -4   4  111.71    7.81
  -4  -4  -4  120.66    9.24
  -4  -4  -4  109.26    7.66
  -4  -4  -5  121.77    9.54
  -4  -4  -5  114.20    8.81
  -4  -4  -5  123.17    9.78
   4  -4   5  142.31    7.05
  -4  -4  -5  133.71    8.98
  -4  -4  -5  120.23    8.11
  -4  -4  -5  146.51    4.94
   4  -4   5  123.39    8.17
  -4  -4  -5  130.23    8.03
  -4  -4  -5  133.31    4.78
  -4  -4  -6  416.57   17.39
   4  -4   6  400.23   13.39
  -4  -4  -6  375.91   16.20
  -4  -4  -6  382.49   17.72
  -4  -4  -6  362.75   16.10
   4  -4   6  362.91   15.98
  -4  -4  -7  138.28    8.67
  -4  -4  -7  146.19   10.40
   4  -4   7  163.65   10.37
  -4  -4  -7  164.12    9.76
   4  -4   7  151.82    5.94
   4  -4   7  144.46    8.72
  -4  -4  -7  132.09    8.88
  -4  -4  -8   56.67    6.29
   4  -4   8   62.30    5.92
  -4  -4  -8   61.77    5.82
   4  -4   8   45.77    2.21
   4  -4   8   48.24    4.84
  -4  -4  -9  101.78    8.42
   4  -4   9  124.78    8.07
  -4  -4  -9  101.64    7.13
  -4  -2  10   85.47    6.44
   4  -2 -10   70.22    6.63
   4  -2 -10   81.36    7.11
  -4  -2  10   96.62    6.59
  -4  -2  10   81.44    6.50
   4  -2  -9   60.41    6.17
  -4  -2   9   60.72    5.82
   4  -2  -9   78.08    6.98
  -4  -2   9   64.05    5.85
  -4  -2   9   74.57    6.89
  -4  -2   8  638.69   24.95
  -4  -2   8  749.21   25.90
   4  -2  -8  634.63   26.18
   4  -2  -8  803.10   29.09
  -4  -2   8  651.04   26.22
   4  -2  -7   40.16    6.28
   4  -2  -7   38.41    4.75
  -4  -2   7   39.39    4.68
  -4  -2   7   35.77    4.82
  -4  -2   7   35.49    5.18
   4  -2  -7   49.78    6.54
   4  -2  -7   36.87    4.97
  -4  -2   6   67.49    6.68
   4  -2  -6   91.05    8.04
   4  -2  -6   76.87    6.66
  -4  -2   6   66.89    6.23
   4  -2  -6   72.16    6.85
  -4  -2   6   61.07    6.83
   4  -2  -6   93.79    8.35
   4  -2  -6   92.37    9.09
   4  -2  -5 1032.91   38.72
   4  -2  -5 1157.29   40.40
  -4  -2   5 1109.52   37.60
  -4  -2   5 1004.35   38.50
  -4  -2   5 1026.84   39.54
   4  -2  -4  354.61   19.50
  -4  -2   4  362.65   15.90
   4  -2  -3   37.11    4.62
  -4  -2   3   39.58    6.11
  -4  -2   3   45.39    5.46
   4  -2  -3   35.48    4.58
  -4  -2   3   46.36    4.52
   4  -2  -2 1907.55   60.16
  -4  -2   2 2016.06   64.85
  -4  -2   2 2086.13   57.53
  -4  -2   2 2008.92   61.61
   4  -2  -2 1955.95   61.06
   4  -2  -2 1974.07   61.62
   4  -2  -1 1163.89   38.71
   4  -2  -1 1090.44   37.68
  -4  -2   1 1241.36   33.02
   4  -2  -1 1133.48   38.32
  -4  -2   1 1084.62   38.08
   4  -2  -1 1153.21   41.55
  -4  -2   1 1120.43   41.46
   4  -2   0 2776.53   83.51
   4  -2   0 2888.23   83.95
   4  -2   0 2797.89   82.20
  -4  -2   0 2852.99   84.82
   4  -2   0 2773.22   81.81
  -4  -2   0 2888.22   82.53
  -4  -2   0 2911.57   83.04
   4  -2   0 2879.19   82.67
   4  -2   1 1664.69   48.77
  -4  -2  -1 1713.97   52.94
  -4  -2  -1 1691.55   52.36
   4  -2   1 1672.10   50.11
   4  -2   1 1653.62   52.79
  -4  -2  -1 1833.60   52.83
   4  -2   1 1674.61   52.75
   4  -2   1 1584.73   51.61
   4  -2   1 1745.26   52.60
  -4  -2  -1 1707.68   54.06
   4  -2   2  596.14   18.51
  -4  -2  -2  628.44   22.95
   4  -2   2  626.33   21.77
  -4  -2  -2  587.33   23.77
   4  -2   2  643.73   26.02
   4  -2   2  587.17   23.42
  -4  -2  -2  606.29   23.31
   4  -2   2  575.89   20.86
  -4  -2  -2  597.75   24.29
   4  -2   3 1545.10   45.80
  -4  -2  -3 1715.59   49.80
   4  -2   3 1556.29   48.78
  -4  -2  -3 1663.49   51.06
  -4  -2  -3 1676.49   51.33
  -4  -2  -4  240.36   10.50
  -4  -2  -4  242.47   14.53
   4  -2   4  233.78   12.09
  -4  -2  -4  222.76   13.00
   4  -2   5   77.06    6.86
   4  -2   5   82.61    7.46
  -4  -2  -5   72.54    4.51
  -4  -2  -5   71.19    6.06
  -4  -2  -5   65.09    6.68
  -4  -2  -5   65.07    4.97
  -4  -2  -5   67.12    7.21
  -4  -2  -5   62.38    6.69
  -4  -2  -5   68.64    7.32
   4  -2   6  782.10   28.32
  -4  -2  -6  733.60   27.36
  -4  -2  -6  724.68   28.22
  -4  -2  -6  719.70   24.32
  -4  -2  -6  741.93   25.78
  -4  -2  -6  689.46   29.41
  -4  -2  -6  672.25   28.49
  -4  -2  -6  690.92   28.87
   4  -2   6  739.85   27.24
  -4  -2  -6  750.66   22.47
  -4  -2  -7  120.16    9.25
   4  -2   7  139.70    9.23
  -4  -2  -7  123.80    8.80
   4  -2   7  130.60    8.88
  -4  -2  -7  118.98    7.16
  -4  -2  -7  135.35    8.07
  -4  -2  -7  129.87   10.42
  -4  -2  -7  120.66    9.99
   4  -2   8   50.96    5.22
  -4  -2  -8   49.65    5.82
  -4  -2  -8   51.25    4.43
   4  -2   8   47.83    5.24
  -4  -2  -9  207.98   11.48
   4  -2   9  224.40   11.07
  -4  -2  -9  207.17    9.90
  -4  -2  -9  203.61   12.26
  -4  -2  -9  216.76   12.68
  -4  -2 -10   73.64    6.91
   4  -2  10   79.98    5.73
  -4  -2 -10   67.28    6.64
  -4  -2 -10   69.43    5.10
   4   0 -11    7.31    2.52
  -4   0  11   10.35    2.62
  -4   0  11    7.98    1.81
  -4   0  11   10.63    2.56
  -4   0  11    6.03    2.35
   4   0 -10   13.63    3.09
  -4   0  10   20.92    2.82
  -4   0  10   21.06    3.54
   4   0 -10   15.86    2.46
  -4   0  10   21.21    3.58
  -4   0  10   23.53    3.72
   4   0  -9  364.16   14.43
  -4   0   9  347.79   16.73
  -4   0   9  404.17   17.28
   4   0  -9  362.59   17.14
  -4   0   8  208.85   11.76
   4   0  -8  217.22   13.18
  -4   0   8  189.77   11.96
   4   0  -8  196.90   11.14
  -4   0   8  225.27   12.27
   4   0  -8  201.87   11.86
   4   0  -8  208.92   13.60
   4   0  -7  245.72   13.60
   4   0  -7  282.83   15.72
  -4   0   7  278.59   14.35
   4   0  -7  255.34   13.15
  -4   0   7  281.53   14.01
  -4   0   7  250.58   14.32
   4   0  -7  270.55   15.90
   4   0  -7  261.03   11.06
   4   0  -6  929.68   33.94
   4   0  -6  934.65   33.25
  -4   0   6  996.76   34.22
  -4   0   6 1078.02   35.17
   4   0  -6  999.65   37.20
   4   0  -6  925.39   29.67
   4   0  -6 1019.10   37.26
   4   0  -5  538.79   24.56
  -4   0   5  534.63   21.77
   4   0  -5  529.54   24.31
   4   0  -5  508.16   17.17
  -4   0   4 3618.94   99.41
   4   0  -4 3299.77   98.69
   4   0  -4 3343.14   98.24
  -4   0   4 3370.45  101.45
   4   0  -4 3717.78  105.17
   4   0  -3 1476.26   50.25
   4   0  -3 1367.83   44.10
  -4   0   3 1449.80   44.56
  -4   0   3 1352.29   45.83
   4   0  -3 1359.34   43.57
   4   0  -2  179.00   13.07
   4   0  -2  176.78   11.30
   4   0  -2  181.35    8.99
   4   0  -2  181.21   12.87
  -4   0   2  176.27    9.20
  -4   0   2  182.84   10.76
   4   0  -2  175.80    9.08
  -4   0   1 4465.15  117.20
  -4   0   1 4398.45  117.62
   4   0  -1 4635.55  127.60
   4   0  -1 4437.59  121.27
  -4   0   1 4219.15  126.92
  -4   0   1 4142.00  120.77
   4   0  -1 4363.14  116.94
   4   0  -1 4343.39  117.05
  -4   0   0  133.02    7.12
  -4   0   0  137.11   10.32
  -4   0   0  151.93    8.87
   4   0   0  152.03    9.47
   4   0   0  137.04   10.33
  -4   0  -1   48.97    3.11
  -4   0  -1   45.39    4.98
   4   0   1   45.07    2.94
   4   0   1   56.49    5.29
  -4   0  -1   46.73    5.20
  -4   0  -1   46.99    3.12
   4   0   1   51.65    3.27
   4   0   1   46.69    5.83
  -4   0  -1   53.52    6.04
  -4   0  -2 4100.79  106.38
  -4   0  -2 3887.55  105.75
  -4   0  -2 3751.88  108.30
   4   0   2 3733.06  105.23
   4   0   2 3567.87  110.27
   4   0   2 3821.63  107.77
  -4   0  -2 3800.33  108.75
  -4   0  -2 3730.90  112.20
   4   0   2 3875.90  111.35
   4   0   3  979.88   33.69
  -4   0  -3  944.13   33.80
   4   0   3  992.80   32.32
  -4   0  -3  947.65   33.80
  -4   0  -3 1030.81   28.14
   4   0   3 1032.15   33.70
  -4   0  -3  890.00   33.91
  -4   0  -3  905.43   32.26
  -4   0  -3  910.81   32.72
  -4   0  -4 1122.41   38.21
   4   0   4 1147.12   38.25
  -4   0  -4 1057.12   38.02
   4   0   4 1158.63   37.26
  -4   0  -4 1059.05   39.21
  -4   0  -4 1207.51   39.09
  -4   0  -4 1104.32   37.48
  -4   0  -4 1165.59   37.87
  -4   0  -5 1054.27   35.83
  -4   0  -5 1064.79   35.30
   4   0   5 1073.38   35.63
  -4   0  -5 1028.49   36.33
   4   0   5 1012.44   35.77
  -4   0  -5  999.55   38.01
  -4   0  -5 1049.57   36.63
  -4   0  -5 1105.22   36.99
  -4   0  -6  125.47    9.25
  -4   0  -6  145.42    8.13
  -4   0  -6  156.80    9.81
  -4   0  -6  148.46    9.27
   4   0   6  150.85    9.38
   4   0   6  142.63    9.44
  -4   0  -6  117.10   10.05
  -4   0  -6  146.67   10.09
  -4   0  -6  139.96    9.79
  -4   0  -6  136.48   10.74
  -4   0  -7  639.12   20.97
  -4   0  -7  583.91   22.93
   4   0   7  564.34   22.99
   4   0   7  631.36   23.03
  -4   0  -7  607.49   23.73
   4   0   7  556.97   16.58
  -4   0  -7  523.39   24.66
  -4   0  -7  681.24   25.11
  -4   0  -7  597.60   22.23
  -4   0  -7  565.92   23.54
  -4   0  -8  223.25   10.23
  -4   0  -8  227.82   12.12
   4   0   8  229.62   12.16
   4   0   8  247.83   12.14
  -4   0  -8  212.13   12.11
   4   0   8  208.13    7.05
  -4   0  -8  202.58   13.11
  -4   0  -8  244.16   13.23
  -4   0  -8  214.02   12.52
  -4   0  -9    0.73    1.88
  -4   0  -9    2.23    1.87
   4   0   9    3.47    1.81
   4   0   9    2.76    1.73
   4   0   9    1.97    0.66
  -4   0  -9    3.91    1.93
  -4   0 -10  292.21   15.32
   4   0  10  327.07   13.98
   4   0  10  284.48   13.71
  -4   0 -10  281.26   14.69
  -4   2  10   86.82    6.74
  -4   2  10   90.51    4.67
  -4   2  10   86.88    7.04
  -4   2  10   74.93    6.51
   4   2 -10   80.93    7.05
  -4   2   9   72.41    6.50
  -4   2   9   72.54    6.20
  -4   2   9   59.79    6.13
   4   2  -9   65.54    5.04
  -4   2   8  745.95   26.40
  -4   2   8  655.27   26.60
  -4   2   8  748.36   23.33
   4   2  -8  642.43   23.71
   4   2  -7   41.77    4.95
  -4   2   7   46.50    6.01
   4   2  -7   46.06    6.37
  -4   2   7   45.56    3.99
   4   2  -6   61.14    7.26
   4   2  -6   64.17    6.13
  -4   2   6   65.46    4.79
  -4   2   5 1042.56   31.76
   4   2  -5  929.03   34.32
   4   2  -5 1060.97   38.10
  -4   2   5 1042.78   34.58
  -4   2   5 1038.57   35.13
  -4   2   4  298.85   12.17
   4   2  -4  287.50   16.50
  -4   2   4  300.67   14.35
   4   2  -4  308.18   16.72
  -4   2   4  304.92   14.27
  -4   2   3   40.52    4.58
   4   2  -3   46.33    5.99
  -4   2   3   35.70    4.33
   4   2  -3   45.52    4.96
  -4   2   3   35.82    3.48
  -4   2   2 1848.70   56.51
  -4   2   2 1935.54   56.93
  -4   2   2 1866.37   56.88
   4   2  -2 1923.84   59.28
   4   2  -2 1873.67   60.53
  -4   2   1 1077.40   34.96
  -4   2   1 1195.54   38.19
   4   2  -1 1081.70   37.68
   4   2  -1 1086.69   36.44
  -4   2   1 1106.87   39.58
  -4   2   1 1072.92   37.49
   4   2  -1 1082.48   36.43
   4   2  -1 1089.59   39.99
  -4   2   0 3155.92   91.60
  -4   2   0 3095.93   90.50
  -4   2   0 3021.67   91.84
  -4   2   0 3167.78   90.42
   4   2   0 3203.48   90.23
   4   2   0 3168.65   90.26
   4   2   0 3130.52   94.45
  -4   2   0 3154.14   92.13
   4   2   0 3190.54   91.63
   4   2   1 1627.94   51.72
  -4   2  -1 1636.29   51.87
   4   2   1 1669.39   49.44
  -4   2  -1 1617.15   50.87
  -4   2  -1 1634.11   51.08
  -4   2  -1 1537.74   49.63
  -4   2  -1 1449.77   54.07
  -4   2  -1 1642.03   51.04
   4   2   1 1627.15   48.46
   4   2   1 1654.31   53.98
   4   2   1 1694.81   51.43
   4   2   2  591.33   21.83
  -4   2  -2  606.33   23.78
   4   2   2  590.69   18.95
   4   2   2  599.47   19.80
  -4   2  -2  570.71   20.09
  -4   2  -2  616.02   26.85
  -4   2  -2  575.78   23.45
   4   2   2  585.38   24.68
  -4   2  -2  563.71   17.08
  -4   2  -2  572.58   20.95
   4   2   2  617.22   23.43
   4   2   2  591.66   21.79
  -4   2  -2  561.28   22.53
   4   2   3 1754.36   52.34
   4   2   3 1838.62   48.70
   4   2   3 1763.34   52.44
  -4   2  -3 1758.06   53.76
   4   2   3 1656.70   50.36
  -4   2  -3 1912.75   58.38
  -4   2  -3 1717.07   53.22
  -4   2  -3 1615.07   47.57
  -4   2  -3 1645.13   49.57
  -4   2  -3 1599.17   54.55
  -4   2  -3 1743.46   55.55
  -4   2  -3 1805.74   53.60
   4   2   4  227.55   13.55
  -4   2  -4  270.28   15.21
   4   2   4  269.35   12.84
  -4   2  -4  251.55   14.76
   4   2   4  257.72   12.12
  -4   2  -4  245.44   13.25
  -4   2  -4  266.38   14.82
   4   2   4  229.49   11.41
  -4   2  -4  249.20   12.28
  -4   2  -4  243.06   13.41
  -4   2  -4  262.58   12.87
  -4   2  -4  269.46   15.18
  -4   2  -4  267.81   14.83
   4   2   4  271.47   12.74
  -4   2  -5   63.44    6.77
   4   2   5   74.49    6.15
   4   2   5   66.43    5.75
  -4   2  -5   64.58    6.55
  -4   2  -5   64.39    6.30
   4   2   5   61.91    5.64
  -4   2  -5   66.59    6.97
  -4   2  -5   59.96    6.95
  -4   2  -5   65.65    6.21
  -4   2  -5   64.32    5.88
  -4   2  -5   70.06    7.40
   4   2   5   71.23    6.65
  -4   2  -6  758.99   28.98
  -4   2  -6  729.83   29.25
  -4   2  -6  689.72   27.63
  -4   2  -6  727.39   27.53
  -4   2  -6  822.60   28.58
  -4   2  -6  746.62   29.34
  -4   2  -6  687.43   27.35
   4   2   6  737.01   26.53
  -4   2  -6  722.83   30.29
   4   2   6  779.08   28.00
  -4   2  -7  129.48    9.85
  -4   2  -7  118.93    8.86
  -4   2  -7  131.98    9.11
  -4   2  -7  122.64    8.58
   4   2   7  125.06    6.93
  -4   2  -7  129.79   10.06
  -4   2  -7  120.32    8.89
   4   2   7  131.02    8.46
  -4   2  -7  121.58    9.60
   4   2   7  132.69    8.96
   4   2   8   57.10    5.42
   4   2   8   58.11    5.45
  -4   2  -8   59.68    5.57
   4   2   8   48.75    4.01
  -4   2  -8   53.40    6.52
  -4   2  -8   48.57    5.46
  -4   2  -8   55.04    6.51
  -4   2  -9  217.10   13.41
   4   2   9  242.65   11.68
   4   2   9  232.77   11.49
  -4   2  -9  223.86   11.02
   4   2   9  208.44    9.24
  -4   2  -9  190.78   11.34
  -4   2  -9  214.51   12.63
   4   2  10   81.88    6.17
   4   2  10   63.32    4.23
  -4   2 -10   77.18    7.41
   4   2  10   76.06    6.02
  -4   2 -10   65.37    6.53
  -4   4   9   64.02    6.10
   4   4  -9   65.17    7.62
  -4   4   8  178.23    8.58
  -4   4   8  179.26    9.89
  -4   4   8  168.47   10.72
   4   4  -8  178.13   12.45
  -4   4   8  164.69    5.87
  -4   4   7   69.58    5.12
  -4   4   7   70.08    3.76
  -4   4   7   66.31    5.89
   4   4  -7   79.38    8.16
  -4   4   6  123.57    8.23
  -4   4   6  110.57    5.70
  -4   4   6  139.99    7.54
   4   4  -6  135.64   10.56
   4   4  -6  106.38    7.89
  -4   4   6  123.38    7.96
  -4   4   5  449.50   17.53
  -4   4   5  384.22   14.50
  -4   4   5  425.51   17.65
   4   4  -5  388.56   17.29
  -4   4   5  420.09   19.64
  -4   4   5  382.82   13.66
   4   4  -5  461.97   21.41
   4   4  -5  450.83   20.90
  -4   4   4  530.53   20.29
  -4   4   4  523.57   20.52
   4   4  -4  475.23   19.99
  -4   4   4  508.93   22.58
  -4   4   4  486.56   17.96
   4   4  -4  510.00   23.01
   4   4  -4  538.65   23.49
  -4   4   3  154.39    9.33
  -4   4   3  152.56    9.49
   4   4  -3  147.65   10.91
  -4   4   3  139.76   10.43
   4   4  -3  152.10   10.78
   4   4  -3  142.31   10.83
   4   4  -3  143.54    9.47
  -4   4   2  606.72   23.04
  -4   4   2  641.84   24.27
   4   4  -2  608.37   25.14
   4   4  -2  539.87   19.19
  -4   4   2  580.43   24.65
   4   4  -2  626.65   22.64
   4   4  -2  639.10   25.14
   4   4  -2  636.56   25.91
   4   4  -1  470.71   15.44
  -4   4   1  545.91   21.14
   4   4  -1  544.64   22.18
   4   4  -1  532.24   22.38
  -4   4   1  487.13   20.46
  -4   4   1  541.83   21.73
  -4   4   1  533.88   21.82
  -4   4   1  486.25   21.57
   4   4  -1  513.06   18.96
   4   4  -1  519.47   21.49
   4   4  -1  542.23   23.00
   4   4   0  394.69   19.02
   4   4   0  384.12   18.11
  -4   4   0  369.10   17.76
  -4   4   0  413.53   18.38
  -4   4   0  363.53   17.39
  -4   4   0  404.41   18.23
   4   4   0  389.63   17.90
   4   4   0  423.92   17.93
  -4   4   0  407.64   18.66
  -4   4   0  377.60   14.92
   4   4   0  390.36   15.16
  -4   4  -1  200.70   12.05
   4   4   1  190.90   10.88
  -4   4  -1  168.52   11.61
  -4   4  -1  189.47   11.59
  -4   4  -1  178.57    9.27
  -4   4  -1  178.23   10.55
   4   4   1  182.69   10.51
   4   4   1  181.38   11.83
   4   4   1  193.53   11.44
   4   4   1  195.65    9.18
  -4   4  -1  194.17   12.14
  -4   4  -2  460.09   21.10
   4   4   2  485.30   19.26
   4   4   2  445.14   14.84
   4   4   2  479.13   18.52
  -4   4  -2  491.56   20.88
  -4   4  -2  462.73   18.61
  -4   4  -2  497.78   21.34
   4   4   2  488.79   21.15
  -4   4  -2  446.74   17.77
   4   4   3  715.69   25.40
  -4   4  -3  698.83   29.00
   4   4   3  731.40   25.93
  -4   4  -3  684.24   24.54
   4   4   3  722.02   23.99
   4   4   3  676.90   22.29
  -4   4  -3  736.95   28.16
  -4   4  -3  735.06   28.68
  -4   4  -3  721.52   27.47
  -4   4  -3  664.20   23.73
   4   4   3  702.35   27.51
  -4   4  -3  692.98   20.55
   4   4   4  168.02    9.58
   4   4   4  165.73    9.82
  -4   4  -4  163.25   11.79
   4   4   4  159.44    8.15
  -4   4  -4  168.39   10.76
   4   4   4  161.16    8.21
  -4   4  -4  151.84   10.40
  -4   4  -4  160.45   11.47
   4   4   4  147.75    9.59
   4   4   4  167.32   10.78
  -4   4  -4  163.36    7.23
  -4   4  -4  155.27    9.42
   4   4   4  162.14   10.17
   4   4   5  133.09    9.04
  -4   4  -5  130.20   10.45
   4   4   5  135.01    8.60
  -4   4  -5  126.34    9.37
   4   4   5  137.29    7.74
  -4   4  -5  144.29    9.55
   4   4   5  112.24    8.17
  -4   4  -5  151.40    9.94
   4   4   5  132.08    9.32
  -4   4  -5  134.37   10.45
  -4   4  -5  131.14    8.83
   4   4   5  128.54    8.21
   4   4   6  469.54   18.74
  -4   4  -6  472.54   20.34
   4   4   6  482.40   17.92
  -4   4  -6  479.08   20.27
   4   4   6  403.74   18.05
  -4   4  -6  481.01   20.02
  -4   4  -6  448.67   21.42
  -4   4  -6  458.48   19.85
   4   4   6  485.54   18.47
   4   4   7  163.75    9.44
   4   4   7  163.54    8.91
   4   4   7  148.42    9.07
  -4   4  -7  177.63   10.54
  -4   4  -7  165.66   11.80
  -4   4  -7  165.36   10.65
  -4   4  -7  168.92   10.82
   4   4   8   64.91    5.55
   4   4   8   64.32    5.25
   4   4   8   54.57    3.88
  -4   4  -8   68.33    6.24
  -4   4  -8   72.92    7.70
   4   4   8   51.93    4.96
   4   4   9  120.24    7.39
   4   4   9  120.00    5.60
   4   4   9  110.52    6.98
  -4   4  -9  125.01    9.98
  -4   4  -9  120.11    9.90
  -4   6   7   62.22    5.48
   4   6  -7   63.61    7.09
   4   6  -7   69.07    7.02
   4   6  -6  132.45   10.09
  -4   6   6  110.12    8.36
  -4   6   6  106.49    5.33
  -4   6   6  109.79    7.56
   4   6  -6  118.41    9.32
   4   6  -5   67.18    5.71
  -4   6   5   66.99    5.94
   4   6  -5   70.54    5.23
   4   6  -5   69.80    7.41
  -4   6   5   63.56    6.35
   4   6  -5   72.43    7.18
  -4   6   4  362.37   14.31
  -4   6   4  343.85   15.51
   4   6  -4  377.65   18.37
  -4   6   4  317.01   15.98
   4   6  -4  354.94   17.26
   4   6  -4  347.93   14.31
   4   6  -3   59.33    4.54
  -4   6   3   59.65    5.35
  -4   6   3   61.06    6.18
   4   6  -3   53.64    6.42
   4   6  -3   56.02    6.26
   4   6  -2   25.04    4.48
  -4   6   2   32.88    4.42
   4   6  -2   33.98    2.94
   4   6  -2   31.18    2.90
  -4   6   2   29.09    4.26
   4   6  -2   31.34    4.74
  -4   6   1  580.35   23.43
  -4   6   1  612.90   22.71
   4   6  -1  551.57   17.74
  -4   6   1  619.29   23.90
  -4   6   1  541.72   22.43
   4   6  -1  584.15   23.70
   4   6  -1  580.90   18.06
   4   6  -1  621.81   24.36
  -4   6   0   40.10    5.37
   4   6   0   43.65    5.48
  -4   6   0   45.24    5.40
   4   6   0   46.98    5.37
   4   6   0   43.69    2.63
   4   6   0   39.84    4.98
  -4   6   0   38.54    4.79
   4   6   0   44.48    5.42
  -4   6   0   46.34    5.75
   4   6   1   23.65    4.04
  -4   6  -1   22.11    4.26
  -4   6  -1   36.40    5.38
   4   6   1   26.34    1.95
  -4   6  -1   20.25    3.71
  -4   6  -1   26.36    4.04
   4   6   1   25.66    4.14
   4   6   1   29.00    4.00
  -4   6  -2  425.83   19.89
   4   6   2  414.02   13.56
   4   6   2  457.08   17.65
  -4   6  -2  390.71   17.41
  -4   6  -2  485.33   14.00
   4   6   2  438.24   19.11
  -4   6  -2  423.72   14.49
  -4   6  -3  102.37    8.76
   4   6   3   99.85    6.75
   4   6   3  109.14    5.35
  -4   6  -3  108.64    4.69
   4   6   3   99.17    7.88
  -4   6  -3   98.80    5.72
   4   6   4  121.53    8.10
   4   6   4  134.14    7.45
  -4   6  -4  134.52   10.20
   4   6   4  128.55    6.38
   4   6   4  130.45    9.01
  -4   6  -4  125.56    5.50
   4   6   5  189.65    8.97
   4   6   5  191.63   10.21
   4   6   5  175.41    8.27
  -4   6  -5  189.80   12.41
   4   6   5  168.10   10.42
  -4   6  -5  182.82    7.41
   4   6   6  114.67    7.55
   4   6   6  117.57    6.44
  -4   6  -6  112.27    9.36
   4   6   6   99.70    7.60
   4   6   7  156.58    8.70
   4   6   7  142.85    7.35
  -4   6  -7  155.45   10.83
  -5  -7   4   18.40    3.85
  -5  -7   4   29.01    4.14
   5  -7  -4   17.64    3.46
  -5  -7   4   24.52    4.03
   5  -7  -4   16.12    3.62
  -5  -7   3  104.75    8.57
   5  -7  -3   95.29    7.73
  -5  -7   3  125.75    8.36
  -5  -7   3   98.38    7.74
   5  -7  -3   96.37    7.88
  -5  -7   2  259.21   12.52
  -5  -7   2  213.79   12.90
   5  -7  -2  216.28   12.12
  -5  -7   2  227.14   12.55
   5  -7  -1   72.33    6.00
  -5  -7   1   95.85    6.98
  -5  -7   1   86.30    7.75
   5  -7   0   46.05    5.14
  -5  -7   0   49.37    4.72
   5  -7   0   32.41    4.40
   5  -7   0   36.96    4.17
  -5  -7   0   34.98    5.18
   5  -7   1  152.65    8.83
   5  -7   1  157.38    9.19
  -5  -7  -1  180.03    9.00
  -5  -7  -1  150.31   10.62
   5  -7   2  104.42    7.01
   5  -7   2  112.39    6.93
  -5  -7  -2  123.01    6.73
   5  -7   2  110.50    7.60
   5  -7   2   92.99    7.51
  -5  -7  -2  101.13    7.99
   5  -7   3   22.31    2.75
  -5  -7  -3   17.63    3.70
   5  -7   3   23.77    3.69
  -5  -7  -3   23.83    2.58
   5  -7   3   16.94    3.37
   5  -7   3   19.70    3.13
  -5  -7  -4   88.67    7.74
   5  -7   4  104.83    7.60
   5  -7   4   93.95    7.21
  -5  -5   8   24.59    3.48
  -5  -5   8   27.54    4.22
   5  -5  -8   19.89    3.87
   5  -5  -8   26.92    4.29
  -5  -5   8   28.71    3.16
  -5  -5   7   22.77    3.66
  -5  -5   7   27.77    4.21
  -5  -5   7   30.01    3.19
   5  -5  -7   27.08    3.42
  -5  -5   7   27.35    4.32
   5  -5  -7   22.28    4.06
   5  -5  -7   25.29    4.21
   5  -5  -6  355.17   17.49
   5  -5  -6  357.85   14.40
   5  -5  -6  340.63   16.76
   5  -5  -6  342.55   15.12
  -5  -5   5   15.36    3.29
  -5  -5   5   17.39    3.99
  -5  -5   5   17.73    2.39
   5  -5  -5   20.47    3.69
  -5  -5   5   17.33    3.46
   5  -5  -5   16.26    3.74
   5  -5  -5   17.42    2.85
   5  -5  -5   16.82    2.60
   5  -5  -4   14.87    2.27
  -5  -5   4   18.07    4.03
   5  -5  -4   16.65    3.58
  -5  -5   4   14.71    3.38
   5  -5  -4   15.03    3.69
   5  -5  -4   14.97    2.47
   5  -5  -4   20.94    3.69
  -5  -5   3  472.82   21.87
   5  -5  -3  573.42   23.30
   5  -5  -3  459.47   19.67
   5  -5  -3  459.62   20.42
   5  -5  -3  557.12   22.67
   5  -5  -3  458.06   21.06
  -5  -5   3  447.76   20.27
   5  -5  -3  496.79   16.43
  -5  -5   2   28.38    4.95
  -5  -5   2   28.09    4.15
   5  -5  -2   28.99    4.11
   5  -5  -2   35.43    5.25
   5  -5  -2   28.96    4.44
  -5  -5   2   27.02    4.32
  -5  -5   2   30.88    4.04
   5  -5  -2   31.21    5.11
   5  -5  -2   23.50    2.51
   5  -5  -2   29.76    2.67
   5  -5  -1   91.56    7.64
   5  -5  -1  104.62    8.62
   5  -5  -1   84.45    6.89
  -5  -5   1   93.94    7.03
   5  -5  -1   98.05    8.18
   5  -5  -1   84.58    4.33
   5  -5  -1   85.45    4.76
  -5  -5   1   90.98    7.30
  -5  -5   1   89.12    8.30
   5  -5   0  509.10   21.08
   5  -5   0  563.77   22.21
  -5  -5   0  562.59   20.53
   5  -5   0  483.54   21.04
   5  -5   0  480.59   19.97
  -5  -5   0  509.09   20.75
  -5  -5   0  489.94   22.59
   5  -5   1  102.96    7.35
  -5  -5  -1  102.52    8.29
   5  -5   1  131.48    8.82
  -5  -5  -1   97.51    7.63
  -5  -5  -1  123.52    7.99
   5  -5   1   94.18    7.69
  -5  -5  -1  105.60    8.21
   5  -5   1   93.53    7.36
   5  -5   2  352.22   16.19
  -5  -5  -2  392.32   18.21
   5  -5   2  355.21   15.45
   5  -5   2  384.32   14.96
   5  -5   2  416.75   17.97
  -5  -5  -2  371.67   17.03
   5  -5   2  432.57   17.38
  -5  -5  -2  445.60   17.13
   5  -5   2  354.67   16.96
   5  -5   3  194.79   11.42
   5  -5   3  205.82    8.42
   5  -5   3  207.13   10.52
   5  -5   3  229.42   12.64
  -5  -5  -3  186.58   11.24
   5  -5   3  212.60   10.78
  -5  -5  -3  194.02   12.04
  -5  -5  -3  227.32   11.38
  -5  -5  -4   86.37    7.21
   5  -5   4   96.84    8.08
  -5  -5  -4   88.16    7.75
   5  -5   4   98.34    6.39
  -5  -5  -4   82.79    6.67
   5  -5   4   86.33    7.21
   5  -5   4   91.99    6.46
   5  -5   4   87.99    3.62
  -5  -5  -4   86.16    6.07
   5  -5   5  236.40   13.19
  -5  -5  -5  240.53    7.98
   5  -5   5  229.57    9.89
   5  -5   5  225.09   12.04
   5  -5   5  215.30   10.65
  -5  -5  -5  213.04   12.79
  -5  -5  -5  201.30   10.43
  -5  -5  -6   17.80    3.83
   5  -5   6   19.91    2.30
  -5  -5  -6   19.06    3.03
   5  -5   6   19.30    2.93
  -5  -5  -7    8.36    3.07
  -5  -5  -7   11.11    2.43
   5  -5   7    8.80    1.33
  -5  -5  -7    4.73    2.04
   5  -5   7    7.16    2.13
   5  -5   8  194.91   10.83
  -5  -5  -8  162.93   11.20
   5  -5   8  169.99    9.00
  -5  -3  10  163.48    9.26
  -5  -3  10  187.55    9.82
   5  -3 -10  150.78   10.01
  -5  -3  10  188.04    9.67
  -5  -3  10  163.51   10.05
   5  -3 -10  165.92   10.49
   5  -3  -9   49.93    5.57
  -5  -3   9   57.48    5.39
   5  -3  -9   55.16    5.96
  -5  -3   9   70.06    5.63
  -5  -3   9   63.72    6.10
  -5  -3   8  133.25    8.70
   5  -3  -8  126.48    9.34
  -5  -3   8  146.66    8.56
   5  -3  -8  125.96    9.00
  -5  -3   8  131.75    9.22
  -5  -3   7  247.56   13.06
  -5  -3   7  285.65   12.65
   5  -3  -7  251.01   14.00
   5  -3  -7  241.71   13.17
  -5  -3   7  259.60   13.97
   5  -3  -7  261.83   13.73
  -5  -3   6  139.14    9.61
   5  -3  -6  170.56   11.93
   5  -3  -6  146.29   10.29
  -5  -3   6  158.62    8.85
   5  -3  -6  129.33    9.27
  -5  -3   6  145.67   10.25
   5  -3  -6  150.46    9.83
  -5  -3   5  645.47   25.77
   5  -3  -5  641.28   26.08
  -5  -3   5  717.66   23.39
   5  -3  -5  608.31   24.34
   5  -3  -5  632.26   24.28
  -5  -3   4  290.54   16.19
   5  -3  -4  284.78   13.82
  -5  -3   4  289.07   15.43
   5  -3  -4  301.24   15.54
  -5  -3   4  300.67   12.33
   5  -3  -4  265.54   13.70
   5  -3  -3  185.88   10.93
  -5  -3   3  195.34   13.13
   5  -3  -3  231.89   14.50
  -5  -3   3  224.51    9.28
  -5  -3   3  202.09   11.81
   5  -3  -3  212.52   11.41
  -5  -3   2 1859.29   61.61
   5  -3  -2 1926.24   62.09
  -5  -3   2 1970.98   53.05
  -5  -3   2 1867.14   59.02
   5  -3  -2 1886.66   55.28
   5  -3  -2 1909.31   57.43
   5  -3  -1   59.85    6.78
   5  -3  -1   47.98    5.68
   5  -3  -1   54.01    4.97
   5  -3  -1   45.88    3.18
  -5  -3   1   53.06    6.68
  -5  -3   1   52.95    5.37
   5  -3   0   74.34    5.18
   5  -3   0   94.09    6.58
   5  -3   0   87.50    7.20
   5  -3   0   97.39    8.42
  -5  -3   0   83.46    8.14
  -5  -3   0   95.68    7.22
   5  -3   0   77.69    6.46
  -5  -3   0   79.65    6.65
  -5  -3  -1 1093.29   36.78
   5  -3   1 1075.00   34.91
   5  -3   1 1181.92   38.33
  -5  -3  -1 1094.98   37.52
   5  -3   1 1064.99   33.75
  -5  -3  -1 1194.01   37.05
   5  -3   1 1114.01   35.85
   5  -3   2  209.27    8.77
  -5  -3  -2  197.06   11.77
  -5  -3  -2  209.44   11.60
   5  -3   2  225.75   11.48
  -5  -3  -2  242.54   11.80
  -5  -3  -2  189.53   12.49
   5  -3   3  263.40   14.34
  -5  -3  -3  224.35   12.37
   5  -3   3  248.40   10.98
  -5  -3  -3  258.63   12.29
  -5  -3  -3  241.59   13.17
  -5  -3  -3  236.22   13.91
   5  -3   3  234.63   10.93
   5  -3   4  704.01   22.34
  -5  -3  -4  766.89   26.18
  -5  -3  -4  738.44   28.85
  -5  -3  -4  705.48   26.42
  -5  -3  -4  741.67   26.94
  -5  -3  -5  134.44    9.16
  -5  -3  -5  139.69    9.57
  -5  -3  -5  126.60    8.85
  -5  -3  -5  150.50    8.87
  -5  -3  -5  149.36   10.52
  -5  -3  -5  132.11    7.29
  -5  -3  -6  631.65   25.44
   5  -3   6  753.68   26.91
  -5  -3  -6  669.59   19.38
  -5  -3  -6  719.09   24.22
  -5  -3  -6  604.52   21.61
  -5  -3  -6  603.89   26.23
  -5  -3  -6  607.49   24.70
  -5  -3  -6  599.58   24.66
  -5  -3  -7  180.83   11.18
   5  -3   7  177.43   10.81
  -5  -3  -7  175.86    9.65
  -5  -3  -7  162.03    8.50
  -5  -3  -7  157.29   10.57
   5  -3   8   66.97    6.11
   5  -3   8   62.18    5.78
  -5  -3  -8   66.81    5.58
  -5  -3  -8   63.79    6.55
  -5  -3  -8   64.63    5.08
  -5  -3  -9  242.60   13.58
   5  -3   9  277.10   12.83
   5  -3   9  256.88   12.62
   5  -1 -10   48.01    5.34
  -5  -1  10   46.68    5.17
  -5  -1  10   53.14    5.25
  -5  -1  10   58.13    5.40
  -5  -1   9  208.84   11.88
  -5  -1   9  229.96   11.87
   5  -1  -9  210.45   11.93
   5  -1  -8  134.62    9.27
  -5  -1   8  158.22    9.59
  -5  -1   8  128.79    9.39
   5  -1  -8  125.89    8.59
  -5  -1   8  147.25    9.16
   5  -1  -8  157.77   11.04
   5  -1  -7   89.14    9.24
  -5  -1   7   70.84    6.91
   5  -1  -7   66.82    6.06
  -5  -1   7   80.75    6.67
  -5  -1   7   86.53    7.06
   5  -1  -7   95.56    8.68
   5  -1  -7   64.28    6.30
  -5  -1   7   77.18    7.32
   5  -1  -6  625.72   24.80
   5  -1  -6  927.08   31.81
  -5  -1   6  590.46   25.78
   5  -1  -6  596.25   23.84
  -5  -1   6  656.23   24.57
  -5  -1   6  669.44   25.31
   5  -1  -6  868.33   30.40
  -5  -1   6  603.32   25.72
   5  -1  -5  286.31   14.19
  -5  -1   5  294.64   14.35
  -5  -1   5  308.38   15.25
   5  -1  -5  359.85   12.35
   5  -1  -5  353.39   17.92
  -5  -1   5  276.06   15.52
   5  -1  -4  197.32   13.74
  -5  -1   4  170.13   12.37
   5  -1  -4  187.78   10.15
   5  -1  -4  206.20    9.27
   5  -1  -4  207.68   12.57
  -5  -1   4  189.53   12.09
   5  -1  -3 1145.90   37.02
   5  -1  -3 1121.53   36.59
   5  -1  -3 1218.35   37.41
  -5  -1   3 1222.45   41.04
   5  -1  -3 1193.13   39.35
   5  -1  -2 1535.20   45.59
  -5  -1   2 1500.01   50.32
   5  -1  -2 1583.27   48.74
   5  -1  -2 1532.64   46.96
  -5  -1   1  632.12   24.87
   5  -1  -1  653.93   26.41
   5  -1  -1  651.74   20.24
   5  -1  -1  592.51   20.22
   5  -1  -1  653.70   24.28
   5  -1  -1  615.28   24.82
   5  -1  -1  610.59   20.49
   5  -1   0 2467.85   72.53
   5  -1   0 2547.90   70.53
   5  -1   0 2250.09   73.48
  -5  -1   0 2465.43   71.98
   5  -1   0 2360.23   68.67
   5  -1   0 2395.12   66.55
  -5  -1   0 2431.31   66.83
  -5  -1  -1  784.61   24.60
  -5  -1  -1  802.43   29.06
  -5  -1  -1  726.22   24.20
  -5  -1  -1  788.54   24.95
   5  -1   1  756.70   25.59
   5  -1   1  775.26   24.37
  -5  -1  -1  765.69   29.52
  -5  -1  -2 2331.47   71.25
  -5  -1  -2 2315.75   65.59
  -5  -1  -2 2232.52   65.76
   5  -1   2 2316.58   64.55
   5  -1   2 2229.98   64.33
  -5  -1  -2 2241.36   70.14
  -5  -1  -2 2381.21   65.72
  -5  -1  -3  463.65   21.67
  -5  -1  -3  452.92   17.99
  -5  -1  -3  451.26   18.19
  -5  -1  -3  476.03   16.83
  -5  -1  -3  448.64   20.68
  -5  -1  -4  488.80   22.96
  -5  -1  -4  517.26   19.67
  -5  -1  -4  481.50   19.77
  -5  -1  -4  511.27   20.09
  -5  -1  -4  492.70   20.32
  -5  -1  -4  554.15   18.27
  -5  -1  -4  472.49   21.83
  -5  -1  -5  748.97   27.13
  -5  -1  -5  751.20   30.22
   5  -1   5  800.51   26.54
   5  -1   5  708.04   27.33
  -5  -1  -5  768.45   25.83
  -5  -1  -5  769.68   27.33
  -5  -1  -5  797.41   24.30
  -5  -1  -5  722.29   21.30
  -5  -1  -5  747.35   29.53
  -5  -1  -5  756.04   27.90
  -5  -1  -6  357.25   18.23
  -5  -1  -6  322.09   15.42
  -5  -1  -6  339.19   16.45
   5  -1   6  360.45   16.33
   5  -1   6  377.64   15.57
  -5  -1  -6  336.80   11.81
  -5  -1  -6  336.05   15.68
  -5  -1  -6  357.79   13.02
  -5  -1  -6  365.06   14.40
  -5  -1  -6  316.65   17.46
  -5  -1  -6  339.06   18.20
  -5  -1  -7   69.44    7.22
  -5  -1  -7   53.55    5.99
  -5  -1  -7   68.12    5.29
  -5  -1  -7   58.31    5.83
  -5  -1  -7   68.27    4.29
   5  -1   7   71.91    6.33
   5  -1   7   66.29    5.81
  -5  -1  -7   70.49    6.18
  -5  -1  -7   67.58    7.36
  -5  -1  -7   66.14    7.52
  -5  -1  -7   68.35    6.75
  -5  -1  -8  333.61   16.38
  -5  -1  -8  377.26   15.25
   5  -1   8  390.93   15.76
  -5  -1  -8  341.05   15.74
  -5  -1  -8  382.41   14.12
   5  -1   8  360.95   16.11
  -5  -1  -8  315.51   12.58
  -5  -1  -8  356.56   16.72
  -5  -1  -9  152.15    9.96
   5  -1   9  160.38    9.57
  -5  -1  -9  147.29    7.17
  -5  -1  -9  148.80    8.45
   5  -1   9  158.26    9.08
  -5  -1 -10   84.79    7.61
   5  -1  10   88.35    6.33
   5  -1  10   81.38    6.47
  -5  -1 -10   76.28    6.91
  -5   1  10   49.19    5.07
  -5   1  10   54.44    5.48
  -5   1  10   50.67    5.46
   5   1 -10   42.60    4.98
   5   1 -10   46.22    3.60
  -5   1   9  225.72   11.64
  -5   1   9  218.65   11.86
  -5   1   9  187.70   11.65
   5   1  -9  198.04   11.48
   5   1  -8  126.52    6.41
   5   1  -8  113.87    7.95
  -5   1   8  132.74    8.81
  -5   1   8  150.44    9.57
  -5   1   8  132.45    9.84
   5   1  -8  120.85    8.64
   5   1  -8  150.72   10.66
   5   1  -8  135.42   10.04
   5   1  -7   79.66    4.79
   5   1  -7   94.54    9.33
   5   1  -7   76.14    6.38
  -5   1   7   93.24    7.31
  -5   1   7   93.12    9.15
   5   1  -7   79.75    7.78
   5   1  -7   74.27    6.74
   5   1  -7  100.85    9.03
   5   1  -6  596.74   19.92
   5   1  -6  649.26   28.03
  -5   1   6  710.40   25.17
   5   1  -6  690.35   27.89
   5   1  -6  639.62   26.03
   5   1  -5  299.81   16.97
   5   1  -5  287.56   16.65
  -5   1   5  286.07   14.03
   5   1  -5  261.95   14.75
   5   1  -5  263.71    9.96
   5   1  -4  207.32   13.64
  -5   1   4  198.19    7.23
   5   1  -4  208.72   12.24
   5   1  -3 1332.64   45.41
  -5   1   3 1316.68   36.04
   5   1  -3 1261.68   40.43
   5   1  -3 1328.21   42.87
   5   1  -2 1611.95   48.88
   5   1  -2 1555.48   45.43
  -5   1   2 1473.86   53.72
  -5   1   2 1648.67   47.63
   5   1  -2 1572.08   47.16
   5   1  -2 1630.51   52.11
   5   1  -2 1626.65   54.28
  -5   1   2 1724.03   47.86
  -5   1   1  566.92   18.13
   5   1  -1  543.55   19.34
   5   1  -1  556.45   24.25
  -5   1   1  552.72   24.32
  -5   1   1  567.07   18.09
   5   1  -1  535.34   17.84
   5   1  -1  532.70   18.54
   5   1  -1  541.74   18.68
  -5   1   1  534.52   24.46
   5   1   0 2516.19   75.74
  -5   1   0 2634.44   71.44
  -5   1   0 2702.18   81.27
   5   1   0 2652.94   71.69
   5   1   0 2665.06   79.84
   5   1   0 2685.11   71.76
   5   1   1  800.86   24.16
  -5   1  -1  748.79   24.89
   5   1   1  807.17   30.31
  -5   1  -1  773.49   27.52
   5   1   1  805.59   24.12
  -5   1  -1  767.85   30.97
  -5   1  -1  763.49   24.42
  -5   1  -1  766.11   24.80
   5   1   1  876.89   29.69
   5   1   2 2198.13   60.82
  -5   1  -2 2092.79   60.60
  -5   1  -2 2111.86   60.87
  -5   1  -2 2098.75   61.31
  -5   1  -2 2112.99   61.03
  -5   1  -2 2143.10   67.24
   5   1   2 2181.96   65.65
  -5   1  -2 2081.32   61.07
  -5   1  -2 2087.81   65.69
   5   1   2 2193.47   60.90
   5   1   2 2252.75   66.41
   5   1   2 2231.20   66.59
  -5   1  -2 2044.02   67.24
  -5   1  -2 2108.21   62.25
  -5   1  -3  451.55   15.07
  -5   1  -3  437.53   20.16
   5   1   3  456.34   17.73
  -5   1  -3  430.93   19.76
  -5   1  -3  462.85   16.04
  -5   1  -3  456.23   17.82
  -5   1  -3  483.28   21.33
  -5   1  -3  439.94   21.57
  -5   1  -3  464.58   18.98
   5   1   3  452.65   19.79
  -5   1  -3  464.76   17.68
  -5   1  -3  457.91   17.54
  -5   1  -3  444.16   20.85
  -5   1  -4  469.00   14.85
  -5   1  -4  489.92   21.10
   5   1   4  503.27   19.54
  -5   1  -4  479.71   21.06
  -5   1  -4  563.72   22.46
  -5   1  -4  512.80   17.40
   5   1   4  528.25   21.15
  -5   1  -4  505.30   20.86
  -5   1  -4  489.68   19.59
  -5   1  -4  503.64   19.72
  -5   1  -4  496.71   22.46
  -5   1  -4  485.33   23.04
  -5   1  -5  736.36   20.45
  -5   1  -5  696.73   27.34
   5   1   5  715.50   25.84
  -5   1  -5  656.03   26.84
   5   1   5  746.88   25.94
  -5   1  -5  774.70   27.85
   5   1   5  720.92   25.86
  -5   1  -5  755.83   28.02
  -5   1  -5  724.49   23.58
  -5   1  -5  665.35   26.81
  -5   1  -5  732.11   26.88
  -5   1  -5  645.52   28.62
   5   1   5  783.96   28.53
  -5   1  -5  683.25   29.44
  -5   1  -6  368.79   11.29
  -5   1  -6  342.02   18.57
  -5   1  -6  363.24   17.30
   5   1   6  366.91   16.27
  -5   1  -6  350.78   16.88
   5   1   6  396.22   16.23
   5   1   6  370.35   15.43
  -5   1  -6  387.40   18.00
  -5   1  -6  350.53   17.42
  -5   1  -6  385.88   17.20
  -5   1  -6  371.66   14.23
  -5   1  -6  336.28   18.84
  -5   1  -6  333.53   16.42
   5   1   6  392.77   17.65
  -5   1  -7   69.17    3.47
  -5   1  -7   77.20    6.49
  -5   1  -7   76.91    7.04
  -5   1  -7   60.11    6.10
   5   1   7   71.92    6.24
  -5   1  -7   67.64    6.54
   5   1   7   75.84    6.17
   5   1   7   74.05    5.61
  -5   1  -7   81.02    7.55
  -5   1  -7   71.70    7.28
  -5   1  -7   69.93    6.82
  -5   1  -7   56.96    7.33
  -5   1  -7   74.32    7.70
  -5   1  -8  360.69   11.74
  -5   1  -8  360.52   16.07
  -5   1  -8  383.48   17.17
  -5   1  -8  354.50   16.79
   5   1   8  349.76   15.90
   5   1   8  392.07   16.05
  -5   1  -8  342.39   17.49
  -5   1  -8  408.70   18.38
  -5   1  -8  409.87   17.77
  -5   1  -9  161.45   10.15
   5   1   9  159.85    9.45
   5   1   9  160.40    9.12
  -5   1 -10   83.88    7.81
   5   1  10   75.14    6.17
   5   1  10   82.07    6.20
  -5   1 -10   83.44    7.07
   5   3 -10  197.11   12.99
  -5   3  10  204.31   10.83
  -5   3  10  197.05   10.25
  -5   3  10  183.90   10.52
   5   3 -10  162.53    8.34
  -5   3   9   69.05    5.81
  -5   3   9   59.56    6.19
   5   3  -9   59.26    4.61
   5   3  -9   68.91    7.67
   5   3  -8  149.92   11.35
  -5   3   8  134.62    9.74
  -5   3   8  154.85    7.38
   5   3  -7  293.91   16.38
  -5   3   7  305.08   11.68
   5   3  -7  271.76   13.41
  -5   3   7  284.44   13.26
   5   3  -6  179.53   12.18
  -5   3   6  175.85    8.20
  -5   3   6  175.92   10.01
  -5   3   6  169.00    9.56
   5   3  -6  156.83    9.63
   5   3  -6  188.03   12.93
  -5   3   5  703.32   22.49
  -5   3   5  693.01   24.77
   5   3  -5  616.15   24.32
  -5   3   5  636.20   27.25
   5   3  -5  717.27   29.06
  -5   3   5  669.53   24.28
   5   3  -5  700.43   27.86
   5   3  -4  335.89   17.82
  -5   3   4  310.72   14.28
   5   3  -4  287.63   13.90
  -5   3   4  305.54   16.87
  -5   3   4  328.37   14.27
   5   3  -4  344.75   16.96
  -5   3   3  268.20   12.25
  -5   3   3  254.76   12.26
   5   3  -3  217.13   11.48
  -5   3   3  226.91   14.24
  -5   3   3  238.06   11.22
   5   3  -3  245.53   13.67
   5   3  -3  251.89   15.02
   5   3  -3  252.19   14.02
  -5   3   2 2009.28   59.28
   5   3  -2 2022.42   61.46
   5   3  -2 2027.24   61.71
  -5   3   2 1898.46   62.95
  -5   3   2 1946.19   60.29
   5   3  -2 2051.77   64.36
   5   3  -2 2019.94   61.86
   5   3  -1   43.73    5.18
  -5   3   1   51.60    4.96
  -5   3   1   43.24    5.11
   5   3  -1   50.07    5.40
  -5   3   1   48.63    5.54
   5   3  -1   50.07    5.43
  -5   3   1   57.13    6.32
  -5   3   1   48.92    6.03
   5   3  -1   47.33    6.19
  -5   3   1   46.17    4.97
   5   3   0  113.00    7.94
  -5   3   0   99.43    7.67
  -5   3   0   97.25    8.13
  -5   3   0  126.76    8.79
   5   3   0  118.67    7.97
  -5   3   0   96.49    7.94
  -5   3   0  108.08    7.98
  -5   3   0  104.27    7.73
  -5   3   0  105.71    9.38
   5   3   0  104.81    7.58
   5   3   0  110.03    9.28
   5   3   1 1285.89   41.15
  -5   3  -1 1212.63   40.86
  -5   3  -1 1205.23   40.46
  -5   3  -1 1258.73   41.02
  -5   3  -1 1123.67   39.29
   5   3   1 1256.19   38.92
  -5   3  -1 1269.83   40.81
   5   3   1 1200.19   42.85
   5   3   1 1305.03   40.12
   5   3   1 1224.93   39.71
   5   3   1 1270.55   39.26
  -5   3  -2  192.21   12.34
   5   3   2  234.93   11.15
   5   3   2  205.75    7.10
  -5   3  -2  212.37   11.99
  -5   3  -2  222.85   12.00
  -5   3  -2  214.77   12.25
   5   3   2  224.75   10.20
  -5   3  -2  216.90   10.45
  -5   3  -2  232.96   14.69
  -5   3  -2  213.19   13.10
   5   3   2  222.93   13.15
   5   3   2  225.92   12.48
   5   3   2  225.84   11.46
  -5   3  -2  216.01   12.27
   5   3   3  230.14   11.24
  -5   3  -3  205.01   12.88
   5   3   3  234.72   11.48
  -5   3  -3  227.99   12.17
  -5   3  -3  208.89   12.88
   5   3   3  222.60    8.94
   5   3   3  230.89    9.58
  -5   3  -3  231.58   12.28
  -5   3  -3  248.69   14.89
  -5   3  -3  217.18    9.54
  -5   3  -3  229.63   13.03
  -5   3  -3  223.35   12.60
   5   3   3  232.85   13.29
  -5   3  -3  197.00   11.60
   5   3   4  909.42   29.32
   5   3   4  901.72   29.60
  -5   3  -4  839.17   31.64
   5   3   4  852.06   27.44
  -5   3  -4  894.74   31.09
  -5   3  -4  865.19   30.52
  -5   3  -4  957.88   33.95
  -5   3  -4  788.50   32.14
   5   3   4  821.91   31.46
  -5   3  -4  829.88   26.11
  -5   3  -4  872.72   32.20
  -5   3  -4  878.35   31.21
  -5   3  -4  871.27   29.80
   5   3   5  137.30    9.49
  -5   3  -5  157.18    9.72
   5   3   5  142.73    8.67
  -5   3  -5  140.61   10.73
  -5   3  -5  134.17    9.69
   5   3   5  151.66    8.30
  -5   3  -5  148.24    9.57
  -5   3  -5  150.09   10.57
  -5   3  -5  147.92    9.42
  -5   3  -5  149.96    8.11
  -5   3  -5  137.77   10.31
  -5   3  -5  136.99    9.86
   5   3   5  165.16    8.95
  -5   3  -6  676.30   25.32
   5   3   6  663.73   23.85
  -5   3  -6  649.62   27.16
   5   3   6  630.47   23.11
  -5   3  -6  601.72   25.04
  -5   3  -6  662.01   25.31
  -5   3  -6  647.22   25.65
  -5   3  -6  693.77   24.66
  -5   3  -6  617.20   23.45
  -5   3  -6  636.40   26.21
   5   3   6  688.22   23.63
  -5   3  -6  664.95   26.96
   5   3   6  686.53   25.10
  -5   3  -7  172.26   11.73
  -5   3  -7  177.13   10.81
  -5   3  -7  154.20   11.74
   5   3   7  172.99    9.44
  -5   3  -7  154.47    9.91
   5   3   7  164.03    8.18
  -5   3  -7  161.94   10.25
  -5   3  -7  155.46    9.44
  -5   3  -7  180.72   10.06
   5   3   7  166.61    9.11
  -5   3  -8   63.15    6.65
  -5   3  -8   74.43    7.62
   5   3   8   73.34    5.77
   5   3   8   64.38    4.57
   5   3   8   62.89    4.86
  -5   3  -8   70.96    6.01
  -5   3  -8   65.92    5.80
  -5   3  -9  298.64   15.68
   5   3   9  250.58   11.96
   5   3   9  274.10   12.42
   5   3   9  250.04    9.92
   5   3   9  226.40   10.20
  -5   5   8   27.45    3.63
   5   5  -8   33.56    5.48
  -5   5   7   25.72    3.62
   5   5  -7   33.59    5.34
  -5   5   7   29.75    3.28
   5   5  -7   24.55    4.73
  -5   5   6  434.90   17.32
  -5   5   6  436.64   15.86
  -5   5   6  386.43   12.93
  -5   5   6  387.81   18.40
   5   5  -6  458.86   20.54
   5   5  -6  440.64   20.26
  -5   5   5   33.53    3.28
  -5   5   5   29.46    3.98
  -5   5   5   27.86    2.82
   5   5  -5   31.47    5.17
  -5   5   5   26.55    4.44
   5   5  -5   23.85    4.79
  -5   5   4    9.71    2.38
  -5   5   4    8.96    2.22
   5   5  -4    8.34    3.09
  -5   5   4    8.82    2.38
  -5   5   4    8.15    2.04
  -5   5   4   12.51    3.37
   5   5  -4    9.79    3.52
   5   5  -4   11.42    2.97
   5   5  -4    8.06    3.20
  -5   5   3  555.97   20.99
  -5   5   3  580.71   21.67
   5   5  -3  561.54   23.53
   5   5  -3  586.70   20.98
  -5   5   3  507.31   22.44
   5   5  -3  607.35   23.60
  -5   5   3  571.36   21.26
   5   5  -3  595.77   24.36
   5   5  -2   32.61    4.70
   5   5  -2   28.51    3.54
  -5   5   2   28.87    3.98
   5   5  -2   34.01    4.99
  -5   5   2   40.90    4.93
  -5   5   2   28.96    3.97
  -5   5   2   34.58    4.78
   5   5  -2   33.63    4.77
   5   5  -2   29.35    4.96
  -5   5   1  105.88    7.48
   5   5  -1   87.24    7.68
  -5   5   1   90.68    7.36
  -5   5   1  107.08    8.02
  -5   5   1   89.13    7.49
   5   5  -1  100.93    7.84
   5   5  -1   98.28    8.49
   5   5  -1  103.01    7.89
   5   5  -1  104.83    6.27
  -5   5   1  110.81    8.11
  -5   5   0  586.58   22.95
   5   5   0  556.28   22.43
  -5   5   0  564.90   22.30
  -5   5   0  499.45   21.96
  -5   5   0  566.69   22.26
   5   5   0  594.59   22.42
  -5   5   0  509.61   21.25
   5   5   0  547.70   21.61
   5   5   0  547.62   18.96
   5   5   0  560.54   23.42
  -5   5  -1  129.44    9.45
   5   5   1  136.67    8.60
  -5   5  -1  147.23   10.20
  -5   5  -1  132.97    9.27
   5   5   1  140.60    8.69
  -5   5  -1  136.34    8.79
   5   5   1  136.82    9.79
  -5   5  -1  149.33    9.71
  -5   5  -1  134.53    7.45
   5   5   1  137.53    7.12
   5   5   1  136.61    9.11
   5   5   2  503.02   18.80
  -5   5  -2  441.52   20.78
  -5   5  -2  456.94   20.13
  -5   5  -2  467.85   20.60
  -5   5  -2  501.33   20.29
   5   5   2  467.19   19.41
   5   5   2  469.77   17.93
  -5   5  -2  443.94   18.05
  -5   5  -2  448.17   19.89
   5   5   2  442.56   20.09
  -5   5  -2  451.51   17.20
   5   5   3  235.16   11.33
   5   5   3  230.95   11.61
  -5   5  -3  211.46   12.51
  -5   5  -3  227.66   13.31
   5   5   3  214.95    7.85
   5   5   3  228.37   10.45
  -5   5  -3  252.89   13.04
  -5   5  -3  232.88   13.07
  -5   5  -3  223.54   10.70
   5   5   3  227.82   12.91
  -5   5  -3  215.54   10.65
  -5   5  -4  110.77    8.88
   5   5   4  112.66    7.29
   5   5   4  109.67    7.46
   5   5   4  106.31    6.18
   5   5   4   98.81    5.34
  -5   5  -4  112.76    9.09
  -5   5  -4  102.59    8.25
   5   5   4  102.79    8.10
  -5   5  -4  105.26    6.87
   5   5   5  265.76   10.62
   5   5   5  270.26   12.50
   5   5   5  248.36   10.50
  -5   5  -5  257.40   14.45
  -5   5  -5  284.34   14.21
  -5   5  -5  247.14   12.09
   5   5   5  247.33   13.19
  -5   5  -5  257.60    8.74
   5   5   6   23.41    3.46
  -5   5  -6   29.64    5.11
   5   5   6   22.69    2.90
  -5   5  -6   23.19    2.38
   5   5   6   22.71    3.78
  -5   5  -6   27.14    3.69
   5   5   7    9.11    2.31
  -5   5  -7    6.85    3.21
   5   5   7    7.94    1.88
   5   5   8  212.30   10.66
   5   5   8  219.12   10.08
  -5   5  -8  230.49   13.61
   5   7  -4   20.81    4.34
  -5   7   4   23.68    3.15
  -5   7   4   19.23    3.20
  -5   7   4   19.08    3.59
   5   7  -4   26.25    4.29
   5   7  -3  138.61    9.74
  -5   7   3  124.46    7.90
  -5   7   3  109.23    8.15
   5   7  -3  128.97    9.17
   5   7  -2  280.37   14.43
  -5   7   2  260.82   13.28
   5   7  -2  284.46   14.41
   5   7  -1   99.63    7.94
  -5   7   1   88.27    7.02
   5   7  -1   98.08    7.83
  -5   7   1  100.65    7.67
  -5   7   0   46.93    5.27
  -5   7   0   39.94    4.74
   5   7   0   50.24    5.51
   5   7   0   43.41    5.17
  -5   7  -1  179.03   10.17
   5   7   1  199.41   11.39
  -5   7  -1  212.41   11.93
   5   7   1  191.74   10.97
  -5   7  -2  123.25    7.98
   5   7   2  136.86    9.05
  -5   7  -2  131.78    9.37
  -5   7  -3   28.54    4.61
   5   7   3   29.01    4.17
  -5   7  -4  128.05    9.49
   5   7   4  107.46    4.56
   5   7   4  120.14    8.21
   5   7   4  123.85    7.73
   6  -6  -6  120.01    8.86
  -6  -6   6  138.04    8.66
   6  -6  -6  137.49    9.67
  -6  -6   5   50.36    5.85
   6  -6  -5   40.83    4.95
   6  -6  -5   41.40    3.21
   6  -6  -5   38.68    5.22
  -6  -6   5   46.92    5.00
   6  -6  -5   39.43    3.66
  -6  -6   5   39.34    4.71
  -6  -6   4   61.49    6.58
   6  -6  -4   55.01    6.14
   6  -6  -4   60.54    6.05
  -6  -6   4   56.54    5.72
  -6  -6   3  237.12   13.71
   6  -6  -3  240.71   12.85
  -6  -6   3  232.21   12.54
   6  -6  -3  246.48    8.90
   6  -6  -2   21.61    3.71
  -6  -6   2   16.71    3.76
  -6  -6   2   25.00    3.98
   6  -6  -2   18.26    1.89
   6  -6  -1   13.31    3.53
   6  -6  -1   13.15    2.62
  -6  -6   1   11.45    3.36
   6  -6  -1   13.50    3.14
   6  -6   0  396.56   16.40
   6  -6   0  366.34   16.41
  -6  -6   0  352.62   17.64
   6  -6   0  335.68   14.27
   6  -6   1   26.20    3.36
   6  -6   1   34.45    3.94
  -6  -6  -1   26.69    4.61
   6  -6   1   27.34    4.29
   6  -6   1   25.44    3.88
   6  -6   2   39.00    3.99
   6  -6   2   42.87    3.75
  -6  -6  -2   35.63    4.90
   6  -6   2   50.09    5.26
   6  -6   2   33.32    4.40
   6  -6   3  230.78   10.71
  -6  -6  -3  222.25   12.58
   6  -6   3  256.49   11.84
   6  -6   3  235.85   12.18
   6  -6   3  227.84    8.73
   6  -6   4   85.56    3.59
   6  -6   4  115.94    8.30
  -6  -6  -4  129.35    5.90
   6  -6   4  109.69    6.80
  -6  -6  -4   98.80    7.92
   6  -6   4  105.37    7.53
   6  -6   4  103.67    6.30
  -6  -6  -4  103.98    6.08
  -6  -6  -5   89.69    7.61
   6  -6   5   96.62    5.82
   6  -6   5   89.48    6.91
   6  -6   5   99.26    6.07
  -6  -6  -5   85.14    5.71
  -6  -6  -6   65.46    6.59
   6  -6   6   78.78    6.85
  -6  -4   8   80.71    6.53
  -6  -4   8   84.01    5.74
   6  -4  -8   73.36    6.94
   6  -4  -8   83.64    6.86
  -6  -4   8   79.98    6.90
  -6  -4   7   95.44    7.32
   6  -4  -7   98.26    7.65
  -6  -4   7  118.93    6.70
   6  -4  -7   93.38    8.12
  -6  -4   7   90.31    7.73
   6  -4  -6  149.83    9.17
  -6  -4   6  148.09    9.68
  -6  -4   6  163.13    7.98
   6  -4  -6  155.14   10.35
   6  -4  -6  140.73    9.58
   6  -4  -6  140.89    8.63
  -6  -4   6  149.85   10.21
   6  -4  -6  138.67    9.07
   6  -4  -6  151.17    9.02
   6  -4  -5   87.74    6.92
  -6  -4   5  101.05    7.97
  -6  -4   5   91.37    8.30
  -6  -4   5  106.28    5.90
   6  -4  -5   94.03    8.05
   6  -4  -5   90.07    7.46
   6  -4  -5   87.88    6.40
   6  -4  -5   98.58    6.86
  -6  -4   4  245.89   13.48
   6  -4  -4  271.36   15.01
  -6  -4   4  217.00   13.50
   6  -4  -4  222.15   11.74
  -6  -4   4  257.97    9.60
   6  -4  -4  214.07   10.48
  -6  -4   4  214.84   11.98
   6  -4  -4  220.10   12.28
   6  -4  -4  227.56   11.09
   6  -4  -3  328.60   16.81
   6  -4  -3  278.91   14.16
   6  -4  -3  283.27   13.61
  -6  -4   3  301.89   10.22
  -6  -4   3  280.37   15.69
  -6  -4   3  274.37   13.98
   6  -4  -3  288.64   12.66
  -6  -4   2  254.71   14.69
   6  -4  -2  283.63   15.07
   6  -4  -2  259.20   12.67
   6  -4  -2  259.66   14.06
  -6  -4   2  260.44   13.37
   6  -4  -2  249.65   13.08
   6  -4  -2  254.21    9.82
   6  -4  -2  264.91   11.48
   6  -4  -1  352.49   16.39
   6  -4  -1  343.93   13.57
  -6  -4   1  313.29   16.85
   6  -4  -1  316.80   14.36
   6  -4  -1  331.93   16.15
   6  -4  -1  307.13   10.14
   6  -4  -1  326.91   15.12
  -6  -4   1  340.28   14.99
   6  -4   0  893.82   30.23
   6  -4   0  838.87   27.32
  -6  -4   0  968.16   30.59
   6  -4   0  852.66   31.06
  -6  -4   0  856.98   32.84
   6  -4   0  834.91   29.47
  -6  -4   0  849.40   29.85
   6  -4   0  890.91   28.37
   6  -4   1  264.38   11.10
  -6  -4  -1  249.48   13.38
  -6  -4  -1  264.73   13.04
   6  -4   1  300.74   14.43
  -6  -4  -1  258.06   12.89
  -6  -4  -1  311.09   13.61
   6  -4   1  268.44   13.45
   6  -4   1  265.04   11.85
  -6  -4  -1  282.77   14.57
   6  -4   1  243.83   12.30
   6  -4   2  186.04    8.02
  -6  -4  -2  182.69   10.35
   6  -4   2  192.87   10.48
  -6  -4  -2  195.17   10.33
   6  -4   2  171.83   10.15
   6  -4   2  167.41    9.96
  -6  -4  -2  166.69   11.01
  -6  -4  -2  177.94   10.80
  -6  -4  -2  164.49    9.84
   6  -4   3  396.44   12.33
  -6  -4  -3  386.25   17.72
  -6  -4  -3  395.34   17.15
   6  -4   3  409.35   15.93
  -6  -4  -3  441.56   16.97
  -6  -4  -3  384.44   16.79
   6  -4   3  403.16   17.17
   6  -4   3  403.04   14.94
  -6  -4  -3  388.63   18.36
  -6  -4  -4  446.70   18.66
  -6  -4  -4  476.35   18.26
   6  -4   4  438.43   18.34
  -6  -4  -4  454.25   20.16
  -6  -4  -4  438.84   19.34
  -6  -4  -4  443.55   18.45
  -6  -4  -5   49.96    5.36
  -6  -4  -5   57.85    5.34
  -6  -4  -5   47.97    5.55
   6  -4   5   48.85    4.31
  -6  -4  -5   47.52    5.17
  -6  -4  -6   75.49    6.61
  -6  -4  -6   84.35    3.83
  -6  -4  -6   85.90    6.41
  -6  -4  -6   83.85    7.52
  -6  -4  -6   67.99    6.04
   6  -4   6   75.99    5.61
   6  -4   7  279.47   14.22
  -6  -4  -7  275.16   12.73
   6  -4   8  158.23    9.86
   6  -2 -10  123.11    8.63
  -6  -2  10  124.29    8.35
   6  -2 -10  144.50    9.74
  -6  -2  10  148.31    8.46
   6  -2  -9   34.58    4.58
  -6  -2   9   31.18    4.34
   6  -2  -9   34.92    5.04
  -6  -2   9   38.86    4.31
  -6  -2   9   35.12    4.76
   6  -2  -8   48.03    5.19
  -6  -2   8   33.61    4.72
   6  -2  -8   46.68    5.60
  -6  -2   8   42.89    4.67
  -6  -2   8   41.19    5.20
   6  -2  -7  419.23   17.67
  -6  -2   7  331.67   17.05
   6  -2  -7  421.69   18.97
  -6  -2   7  349.60   16.14
  -6  -2   7  325.50   17.00
   6  -2  -6  171.55   12.56
  -6  -2   6   99.68    8.34
   6  -2  -6   94.64    8.43
  -6  -2   6   99.99    7.31
  -6  -2   6   91.50    8.08
   6  -2  -6  170.79   10.52
   6  -2  -6  107.58    8.03
   6  -2  -5   75.15    6.33
  -6  -2   5   87.01    6.53
  -6  -2   5   82.87    7.60
   6  -2  -5   80.16    7.11
  -6  -2   4  938.89   35.60
   6  -2  -4  981.93   33.96
   6  -2  -4  976.29   35.35
  -6  -2   3  138.39   10.54
  -6  -2   3  130.32    9.99
  -6  -2   3  157.41    8.08
   6  -2  -3  137.41    8.45
   6  -2  -3  133.96   10.81
   6  -2  -3  132.56    9.60
   6  -2  -3  121.02    7.67
  -6  -2   2  336.96   17.14
   6  -2  -2  334.65   17.61
   6  -2  -2  321.64   13.90
   6  -2  -2  333.32   16.00
  -6  -2   2  373.86   13.14
  -6  -2   2  350.93   14.69
   6  -2  -2  342.67   14.48
   6  -2  -2  320.38   13.34
   6  -2  -2  341.73   16.37
   6  -2  -1  532.58   22.13
   6  -2  -1  476.93   18.05
  -6  -2   1  499.52   21.69
  -6  -2   1  518.47   18.88
   6  -2  -1  500.88   16.03
   6  -2  -1  503.11   18.56
   6  -2  -1  525.78   21.12
   6  -2   0  520.74   20.83
  -6  -2   0  487.72   21.71
  -6  -2   0  562.97   15.62
   6  -2   0  507.59   16.16
   6  -2   0  482.20   18.26
  -6  -2   0  517.14   18.72
   6  -2   0  540.74   21.75
   6  -2   1  460.42   17.33
  -6  -2  -1  455.86   17.29
  -6  -2  -1  466.50   14.10
  -6  -2  -1  425.26   16.75
   6  -2   1  442.63   18.10
   6  -2   1  449.46   17.01
  -6  -2  -1  432.84   20.28
   6  -2   1  445.93   19.27
  -6  -2  -2  444.02   17.74
  -6  -2  -2  452.40   17.52
  -6  -2  -2  473.16   15.56
  -6  -2  -2  475.51   18.01
   6  -2   2  467.41   17.61
   6  -2   2  447.20   17.36
  -6  -2  -2  429.07   20.31
  -6  -2  -2  460.07   20.70
   6  -2   2  455.63   19.56
  -6  -2  -3  493.13   17.40
  -6  -2  -3  493.61   18.89
  -6  -2  -3  467.56   21.40
  -6  -2  -3  510.44   18.46
  -6  -2  -3  456.31   21.16
  -6  -2  -4 1159.39   40.97
  -6  -2  -4 1117.32   39.30
  -6  -2  -4 1135.32   37.75
  -6  -2  -4 1222.26   36.37
  -6  -2  -4 1214.92   36.37
  -6  -2  -4 1111.66   40.11
  -6  -2  -4 1136.13   37.45
  -6  -2  -5  278.08   15.53
  -6  -2  -5  279.10   13.81
  -6  -2  -5  289.49   12.10
  -6  -2  -5  284.95   12.24
  -6  -2  -5  271.63   15.02
  -6  -2  -5  271.30   14.60
  -6  -2  -6  110.67    9.25
  -6  -2  -6  103.68    8.00
  -6  -2  -6  115.06    6.43
  -6  -2  -6  129.18    7.16
  -6  -2  -6  114.60    9.41
  -6  -2  -6  110.60    8.91
  -6  -2  -7  331.77   17.07
  -6  -2  -7  311.35   15.55
  -6  -2  -7  330.71   12.35
  -6  -2  -7  344.99   13.21
  -6  -2  -7  323.37   10.59
  -6  -2  -8   90.65    7.90
  -6  -2  -8   59.41    6.17
  -6  -2  -8   77.89    4.55
   6  -2   8   70.95    6.18
  -6  -2  -9   39.96    5.08
   6  -2   9   42.28    4.65
  -6   0  10   18.68    3.69
  -6   0  10   28.41    3.77
   6   0 -10   19.01    3.41
  -6   0  10   22.06    3.54
  -6   0  10   23.34    3.92
   6   0  -9  101.11    7.65
  -6   0   9   99.91    8.15
  -6   0   9  113.25    7.78
  -6   0   9  118.00    8.15
  -6   0   9  106.70    8.32
   6   0  -8  240.55   12.84
  -6   0   8  256.51   14.10
   6   0  -8  250.84   12.38
  -6   0   8  274.62   13.13
  -6   0   8  282.22   13.69
   6   0  -7   69.32    7.68
   6   0  -7   62.93    5.60
  -6   0   7   67.38    5.99
  -6   0   7   70.89    6.29
   6   0  -7   68.79    7.57
   6   0  -7   63.96    6.01
   6   0  -6  722.73   29.34
   6   0  -6  678.99   25.15
  -6   0   6  738.05   26.03
   6   0  -6  779.10   30.48
   6   0  -6  714.12   26.14
   6   0  -5  180.21   12.60
  -6   0   5  140.09   10.83
   6   0  -5  169.71   11.67
  -6   0   5  147.43    8.97
   6   0  -4   97.61    9.40
  -6   0   4  106.27    9.38
   6   0  -4  102.59    8.64
   6   0  -4   95.06    6.45
  -6   0   4  100.31    6.72
  -6   0   4   90.75    7.40
   6   0  -4  100.07    6.84
   6   0  -3 1173.44   41.54
   6   0  -3 1187.54   38.95
   6   0  -3 1098.94   34.88
  -6   0   3 1180.93   35.53
  -6   0   3 1140.33   37.38
   6   0  -3 1130.18   35.36
   6   0  -2   54.30    5.24
   6   0  -2   55.95    6.70
  -6   0   2   67.44    7.43
  -6   0   2   53.63    3.68
   6   0  -2   54.59    3.63
   6   0  -2   56.39    3.73
   6   0  -2   51.66    4.12
  -6   0   2   51.92    4.84
  -6   0   1    5.62    1.42
  -6   0   1    6.09    2.99
   6   0  -1    5.51    2.36
  -6   0   1    5.96    1.89
   6   0  -1    5.42    2.68
  -6   0   0 2669.27   83.64
  -6   0   0 2806.76   87.45
  -6   0   0 2997.44   81.45
   6   0   0 3216.48   88.73
   6   0   0 3129.09   85.79
  -6   0  -1   38.11    5.16
  -6   0  -1   46.51    4.88
   6   0   1   39.76    3.12
  -6   0  -1   33.21    4.68
   6   0   1   42.44    4.62
  -6   0  -1   40.96    4.80
   6   0   1   47.80    5.83
  -6   0  -2  249.02   14.55
  -6   0  -2  271.88   10.18
  -6   0  -2  255.40    9.88
   6   0   2  270.56    9.67
  -6   0  -2  267.18   13.10
   6   0   2  265.41    8.32
  -6   0  -2  264.98   10.44
   6   0   2  253.23   12.50
  -6   0  -2  249.20   12.96
   6   0   2  272.67   14.67
  -6   0  -3  808.58   32.06
  -6   0  -3  810.54   29.88
  -6   0  -3  803.33   26.68
  -6   0  -3  824.61   29.19
   6   0   3  836.00   26.10
  -6   0  -3  805.16   26.94
  -6   0  -3  833.60   24.81
   6   0   3  850.90   28.38
  -6   0  -3  828.17   29.33
  -6   0  -4  131.75    8.34
  -6   0  -4  141.55    9.34
  -6   0  -4  142.00    8.40
   6   0   4  140.65    7.93
  -6   0  -4  158.87    9.70
  -6   0  -4  146.29   10.63
  -6   0  -4  152.64   11.19
  -6   0  -4  153.82    5.84
   6   0   4  154.65    9.95
  -6   0  -4  145.58    9.54
  -6   0  -5  184.69    9.96
  -6   0  -5  177.24   10.35
  -6   0  -5  184.94   12.63
   6   0   5  176.09   10.15
   6   0   5  184.13    9.59
  -6   0  -5  181.97   10.75
   6   0   5  173.19   10.41
  -6   0  -5  174.42   10.92
  -6   0  -5  179.65   10.16
  -6   0  -5  176.22   12.03
  -6   0  -5  180.05   10.29
  -6   0  -6  158.50    9.30
  -6   0  -6  171.69    9.85
   6   0   6  164.09    9.76
   6   0   6  164.67    9.24
  -6   0  -6  163.84   10.10
  -6   0  -6  149.44   11.24
  -6   0  -6  152.81   10.55
  -6   0  -6  189.70   10.42
  -6   0  -6  152.30   11.35
  -6   0  -6  147.57    9.52
  -6   0  -7   87.08    7.10
  -6   0  -7   90.93    8.45
  -6   0  -7   85.78    5.45
  -6   0  -7   84.36    6.58
  -6   0  -7   91.05    4.13
  -6   0  -7   84.67    6.77
   6   0   7   86.58    6.83
   6   0   7  101.38    6.99
  -6   0  -7   88.14    7.20
  -6   0  -7   97.38    4.49
  -6   0  -7   79.47    7.70
  -6   0  -7   96.94    7.47
  -6   0  -8  464.67   21.30
  -6   0  -8  456.70   15.79
  -6   0  -8  434.04   18.09
  -6   0  -8  449.89   14.48
  -6   0  -8  445.78   18.17
   6   0   8  462.76   18.68
   6   0   8  469.03   18.01
  -6   0  -8  431.63   18.81
  -6   0  -8  409.21   20.26
  -6   0  -9   37.29    4.63
  -6   0  -9   40.53    2.91
  -6   0  -9   39.67    4.33
   6   0   9   37.15    4.45
   6   0   9   42.62    4.39
  -6   0 -10    1.65    1.80
   6   0  10    1.19    1.59
   6   0  10    4.64    1.89
   6   2 -10  122.54    8.46
  -6   2  10  141.98    8.51
  -6   2  10  143.53    8.98
  -6   2  10  141.93    9.17
   6   2  -9   27.90    3.99
  -6   2   9   35.83    4.31
  -6   2   9   34.09    5.21
  -6   2   8   47.83    4.87
   6   2  -8   39.04    3.10
   6   2  -7  362.71   18.79
  -6   2   7  407.68   16.22
   6   2  -7  356.27   17.30
   6   2  -7  311.59   11.93
   6   2  -6  100.61    9.31
   6   2  -6   88.91    6.77
  -6   2   6  101.09   10.48
   6   2  -6  106.18    8.61
  -6   2   6  100.92    5.00
   6   2  -5   71.36    7.82
  -6   2   5   81.15    4.31
  -6   2   5   77.41    8.36
   6   2  -5   80.03    7.52
   6   2  -5   72.45    5.93
  -6   2   5   72.71    7.81
   6   2  -5   80.11    7.25
   6   2  -4 1101.79   37.12
  -6   2   4 1076.71   31.28
  -6   2   4 1003.63   39.52
  -6   2   4 1121.29   35.02
  -6   2   4 1021.80   39.39
  -6   2   4 1087.43   34.71
   6   2  -4 1095.47   39.09
  -6   2   3  174.14   12.71
  -6   2   3  184.00    9.43
   6   2  -3  177.43    9.22
   6   2  -3  165.57   11.67
  -6   2   3  176.00   12.62
   6   2  -3  186.56   12.10
   6   2  -3  180.98   10.50
  -6   2   3  188.62    9.44
  -6   2   2  351.94   13.81
   6   2  -2  343.97   13.40
  -6   2   2  326.09   17.92
  -6   2   2  347.82   13.79
   6   2  -2  325.48   13.50
  -6   2   2  362.31   18.67
   6   2  -2  349.27   14.95
   6   2  -2  348.83   14.82
   6   2  -2  359.83   17.63
   6   2  -1  564.71   20.42
  -6   2   1  587.80   19.42
   6   2  -1  568.85   20.13
   6   2  -1  546.86   20.07
  -6   2   1  566.80   19.27
  -6   2   1  587.50   24.61
   6   2  -1  553.34   23.34
  -6   2   1  512.04   23.63
  -6   2   0  571.99   19.33
   6   2   0  578.27   21.47
   6   2   0  550.61   19.17
  -6   2   0  568.28   22.97
  -6   2   0  571.98   23.27
  -6   2   0  569.38   23.79
   6   2   0  561.84   22.87
   6   2   0  564.29   19.52
  -6   2   0  567.17   19.63
  -6   2   0  525.93   23.47
   6   2   1  530.09   20.77
  -6   2  -1  492.87   18.34
   6   2   1  501.18   17.53
  -6   2  -1  499.58   19.69
  -6   2  -1  496.86   18.52
  -6   2  -1  547.05   20.17
  -6   2  -1  480.45   19.58
   6   2   1  498.19   21.14
  -6   2  -1  477.86   21.91
   6   2   2  461.71   19.92
   6   2   2  458.45   16.64
  -6   2  -2  415.43   19.92
   6   2   2  465.14   16.70
  -6   2  -2  470.06   20.87
  -6   2  -2  487.29   18.13
  -6   2  -2  454.05   17.24
  -6   2  -2  436.70   17.75
  -6   2  -2  492.51   22.13
  -6   2  -2  435.26   16.73
  -6   2  -2  459.11   17.95
  -6   2  -2  475.84   21.11
   6   2   2  470.04   15.23
   6   2   2  482.38   20.09
   6   2   3  511.70   18.60
  -6   2  -3  492.35   21.78
   6   2   3  541.14   15.12
  -6   2  -3  508.45   22.01
   6   2   3  522.16   18.62
  -6   2  -3  496.88   19.16
  -6   2  -3  497.18   18.82
   6   2   3  556.03   21.96
  -6   2  -3  533.83   23.42
  -6   2  -3  502.37   16.35
   6   2   3  488.10   21.40
  -6   2  -3  497.13   20.25
  -6   2  -3  502.04   16.54
  -6   2  -3  513.59   21.86
  -6   2  -3  511.15   17.83
  -6   2  -4 1339.96   40.05
   6   2   4 1295.99   39.49
  -6   2  -4 1182.72   42.35
   6   2   4 1267.65   38.65
  -6   2  -4 1250.03   42.70
  -6   2  -4 1277.65   40.23
  -6   2  -4 1248.15   39.17
  -6   2  -4 1405.36   44.84
   6   2   4 1311.57   42.69
  -6   2  -4 1233.94   37.81
  -6   2  -4 1223.60   42.84
  -6   2  -4 1319.26   42.09
   6   2   4 1326.76   39.44
   6   2   4 1255.40   42.31
  -6   2  -5  301.94   15.74
   6   2   5  323.70   13.65
  -6   2  -5  310.05   15.62
  -6   2  -5  308.69   14.26
  -6   2  -5  329.49   14.75
  -6   2  -5  327.39   16.05
  -6   2  -5  360.42   16.91
  -6   2  -5  339.98   13.74
   6   2   5  326.90   15.51
  -6   2  -5  326.17   13.56
  -6   2  -5  309.46   16.34
  -6   2  -5  287.52   16.72
  -6   2  -6  119.57    8.42
  -6   2  -6  124.23    9.50
  -6   2  -6  131.80    9.59
   6   2   6  126.97    7.73
  -6   2  -6  112.43    8.50
  -6   2  -6  122.88    8.17
  -6   2  -6  138.07    9.39
   6   2   6  129.05    7.77
  -6   2  -6  124.41    7.52
  -6   2  -6  129.39    9.28
  -6   2  -6  128.85    8.22
  -6   2  -6  111.69    9.35
  -6   2  -6  103.69    9.33
  -6   2  -7  398.04   17.58
  -6   2  -7  394.62   18.74
   6   2   7  401.95   16.41
   6   2   7  403.03   16.46
  -6   2  -7  414.85   17.60
   6   2   7  386.58   15.43
  -6   2  -7  422.54   18.72
  -6   2  -7  410.31   15.86
  -6   2  -7  391.08   17.59
  -6   2  -7  349.60   18.92
  -6   2  -8   91.30    7.69
   6   2   8  101.46    7.03
   6   2   8  100.34    6.79
   6   2   8   97.20    6.08
  -6   2  -8  110.98    6.86
  -6   2  -8  105.51    8.15
  -6   2  -8   81.23    6.95
  -6   2  -8   88.91    8.35
   6   2   9   44.79    4.52
   6   2   9   47.42    4.57
  -6   2  -9   37.99    5.04
  -6   2  -9   40.33    4.85
  -6   4   8   88.62    4.70
   6   4  -8  102.49    8.90
  -6   4   7  109.72    5.82
  -6   4   7  102.95    7.17
  -6   4   7   94.32    5.36
  -6   4   7   92.24    8.08
   6   4  -7  115.66    9.30
  -6   4   6  157.87    7.54
  -6   4   6  139.28    7.26
  -6   4   6  156.21    8.98
   6   4  -6  140.62    8.66
  -6   4   6  141.83   10.23
   6   4  -6  155.68   10.82
  -6   4   6  160.41    8.70
  -6   4   5   84.40    5.66
  -6   4   5   93.39    6.65
   6   4  -5   78.39    6.16
  -6   4   5   80.39    7.76
   6   4  -5   90.50    7.96
   6   4  -5   85.66    8.45
  -6   4   5   89.12    6.36
  -6   4   4  237.16   11.34
  -6   4   4  210.69   10.55
  -6   4   4  239.21   11.59
   6   4  -4  214.16   11.13
  -6   4   4  236.70   10.13
  -6   4   4  213.51   13.21
   6   4  -4  238.55   13.36
   6   4  -4  251.94   14.64
   6   4  -4  249.55   13.25
   6   4  -4  251.12   13.33
  -6   4   3  303.54   13.28
  -6   4   3  256.79   12.73
  -6   4   3  296.44   13.43
   6   4  -3  291.47   14.91
  -6   4   3  284.07   15.42
  -6   4   3  293.98   13.04
   6   4  -3  310.27   14.71
   6   4  -3  314.74   16.67
   6   4  -3  313.71   15.00
  -6   4   2  279.89   12.56
  -6   4   2  241.52   12.52
   6   4  -2  291.39   14.23
   6   4  -2  279.72   13.76
  -6   4   2  254.60   14.34
  -6   4   2  267.32   13.34
   6   4  -2  269.50   15.19
   6   4  -2  272.68   13.26
  -6   4   1  383.69   15.64
   6   4  -1  364.29   16.47
  -6   4   1  314.53   15.69
  -6   4   1  412.92   17.41
  -6   4   1  365.36   17.11
  -6   4   1  371.71   17.76
   6   4  -1  381.17   18.61
   6   4  -1  369.23   16.17
  -6   4   1  364.15   16.04
   6   4  -1  364.83   15.57
   6   4   0  984.79   32.47
  -6   4   0  819.58   32.03
  -6   4   0 1008.46   33.33
  -6   4   0  946.28   32.46
   6   4   0  984.48   32.18
  -6   4   0  882.92   32.25
  -6   4   0  999.87   35.74
   6   4   0  977.48   31.91
   6   4   0 1009.60   35.39
   6   4   0  928.90   31.27
  -6   4   0  921.41   31.75
   6   4   1  269.30   13.19
   6   4   1  270.95   12.30
  -6   4  -1  271.02   13.56
  -6   4  -1  236.19   13.31
  -6   4  -1  288.52   13.73
  -6   4  -1  252.03   12.62
  -6   4  -1  242.77   12.40
  -6   4  -1  300.97   16.41
   6   4   1  253.40   11.94
   6   4   1  257.33   14.40
  -6   4  -1  259.16   13.09
   6   4   1  264.40   12.67
   6   4   1  257.29   12.14
   6   4   2  205.12   10.10
  -6   4  -2  205.31   11.35
  -6   4  -2  186.13   11.23
  -6   4  -2  180.73   11.75
  -6   4  -2  197.92   11.13
   6   4   2  197.15    9.48
  -6   4  -2  184.42    9.62
   6   4   2  190.68   11.95
   6   4   2  203.40   11.23
   6   4   2  180.55    9.81
  -6   4  -2  190.07   10.77
   6   4   3  453.26   19.07
   6   4   3  469.80   17.48
  -6   4  -3  406.47   19.72
   6   4   3  473.21   17.93
  -6   4  -3  449.10   20.09
  -6   4  -3  447.01   19.63
   6   4   3  437.90   15.81
  -6   4  -3  465.48   18.97
  -6   4  -3  488.28   22.17
  -6   4  -3  426.76   16.19
   6   4   3  464.23   20.16
  -6   4  -3  417.55   18.35
  -6   4  -3  458.98   19.39
   6   4   4  472.24   19.05
   6   4   4  466.00   17.22
   6   4   4  426.34   17.12
  -6   4  -4  378.80   19.19
   6   4   4  465.56   15.15
   6   4   4  414.06   14.19
  -6   4  -4  403.67   19.18
  -6   4  -4  428.49   18.52
  -6   4  -4  468.39   18.79
  -6   4  -4  436.91   19.45
  -6   4  -4  475.72   21.07
   6   4   4  455.66   19.65
  -6   4  -4  416.54   18.96
  -6   4  -4  425.27   17.93
   6   4   5   39.28    4.23
   6   4   5   39.60    3.45
  -6   4  -5   44.55    5.02
  -6   4  -5   44.48    4.98
  -6   4  -5   45.85    5.11
  -6   4  -5   42.12    5.54
   6   4   5   42.14    5.15
   6   4   5   48.17    4.47
  -6   4  -6   87.61    7.32
   6   4   6   91.61    6.53
   6   4   6  102.37    6.12
  -6   4  -6   95.28    7.34
  -6   4  -6  102.79    7.68
  -6   4  -6   90.56    8.06
  -6   4  -6   97.29    5.35
  -6   4  -6   98.93    7.16
   6   4   6   96.50    6.37
   6   4   7  268.38   12.40
   6   4   7  253.36   11.62
  -6   4  -7  305.09   14.19
  -6   4  -7  280.55   14.99
  -6   4  -7  292.05   13.52
   6   4   8  151.68    8.20
   6   4   8  142.39    7.23
  -6   4  -8  151.60   10.63
  -6   4  -8  144.40   11.10
  -6   6   6  162.30    9.13
   6   6  -6  172.91   11.23
  -6   6   6  149.17    9.94
   6   6  -6  182.13   11.63
  -6   6   5   55.11    5.00
  -6   6   5   55.94    4.41
   6   6  -5   59.18    6.34
  -6   6   5   43.80    3.65
  -6   6   5   50.67    5.62
   6   6  -5   60.13    6.53
  -6   6   4   61.58    5.06
  -6   6   4   66.83    5.61
   6   6  -4   74.08    7.00
  -6   6   4   62.10    4.90
  -6   6   4   68.52    6.50
   6   6  -4   70.45    7.03
   6   6  -3  288.99   14.73
  -6   6   3  248.06   12.30
  -6   6   3  277.34   12.96
  -6   6   3  257.97   13.61
  -6   6   3  276.32   12.71
   6   6  -3  298.84   15.28
   6   6  -3  277.72   11.81
   6   6  -2   29.91    4.49
  -6   6   2   28.76    3.92
  -6   6   2   25.97    4.07
  -6   6   2   29.75    4.41
   6   6  -2   27.52    4.50
   6   6  -2   29.40    3.13
  -6   6   1   19.49    3.62
   6   6  -1   18.09    3.38
  -6   6   1   17.44    3.28
   6   6  -1   18.81    2.55
   6   6  -1   15.28    3.54
   6   6   0  418.56   17.84
  -6   6   0  373.48   16.82
   6   6   0  432.99   17.52
   6   6   0  449.28   19.32
   6   6   0  415.41   14.69
  -6   6   0  401.52   17.90
  -6   6  -1   25.37    4.12
   6   6   1   30.64    4.00
  -6   6  -1   26.30    3.75
   6   6   1   25.18    4.19
   6   6   1   28.87    3.99
  -6   6  -2   47.69    5.52
   6   6   2   48.61    4.47
  -6   6  -2   47.58    4.68
   6   6   2   51.76    5.71
  -6   6  -2   50.25    4.14
  -6   6  -3  299.88   15.05
   6   6   3  305.19   13.35
   6   6   3  281.22   11.96
  -6   6  -3  286.98   12.54
   6   6   3  310.35   14.91
  -6   6  -3  283.57   12.12
   6   6   4  134.47    7.93
  -6   6  -4  132.93    9.40
   6   6   4  119.57    6.51
   6   6   4  127.84    8.84
  -6   6  -4  116.18    7.17
   6   6   5  134.61    6.44
   6   6   5  128.78    7.62
   6   6   5  106.58    4.75
  -6   6  -5  116.58    8.92
   6   6   5  106.53    7.95
  -6   6  -5  117.41    7.37
   6   6   6  106.15    6.84
   6   6   6   85.89    4.71
   6   6   6   95.92    7.32
  -7  -7   1  136.76    9.85
   7  -7  -1  151.18    7.83
   7  -7   0   66.88    4.99
   7  -7   0   70.64    6.10
  -7  -7   0   63.93    6.66
  -7  -7  -1   44.21    4.42
  -7  -7  -1   36.46    5.00
  -7  -5   7   28.43    3.97
   7  -5  -7   23.48    3.94
  -7  -5   7   28.54    2.80
   7  -5  -7   20.71    3.76
  -7  -5   7   21.89    3.86
  -7  -5   6    4.66    2.33
  -7  -5   6    5.39    1.47
   7  -5  -6    7.85    2.67
   7  -5  -6    3.51    2.28
   7  -5  -6    6.69    1.94
   7  -5  -5  313.82   15.12
  -7  -5   5  316.96   15.50
  -7  -5   5  328.72   16.58
  -7  -5   5  368.92   11.88
   7  -5  -5  312.63   13.11
   7  -5  -5  345.30   13.61
  -7  -5   4   80.01    7.19
  -7  -5   4   82.29    7.63
   7  -5  -4   78.32    6.25
   7  -5  -4   82.69    6.78
   7  -5  -4   93.87    5.68
  -7  -5   4   86.31    6.82
   7  -5  -4   76.45    4.95
  -7  -5   3   40.65    5.54
   7  -5  -3   51.40    5.00
   7  -5  -3   42.64    5.25
  -7  -5   3   44.83    4.96
   7  -5  -3   47.92    5.19
   7  -5  -3   45.95    3.83
  -7  -5   2  213.48   12.75
   7  -5  -2  214.61   12.26
   7  -5  -2  206.65    9.18
   7  -5  -2  197.44   10.42
   7  -5  -2  207.28   11.96
  -7  -5   2  201.28   11.03
   7  -5  -2  192.40   10.90
   7  -5  -2  193.10    7.11
  -7  -5   1   73.99    5.98
   7  -5  -1   72.74    6.41
   7  -5  -1   62.09    6.15
   7  -5  -1   62.23    5.37
   7  -5  -1   66.05    4.65
  -7  -5   1   63.29    6.89
   7  -5   0  250.10   11.80
  -7  -5   0  230.06   13.67
   7  -5   0  233.65   12.56
   7  -5   0  242.61   11.66
  -7  -5   0  242.95   11.85
   7  -5   1   52.90    4.94
   7  -5   1   57.30    4.54
  -7  -5  -1   51.92    5.11
   7  -5   1   47.23    5.17
  -7  -5  -1   55.85    6.46
   7  -5   2   13.33    1.98
  -7  -5  -2   16.15    2.97
  -7  -5  -2   16.81    3.26
   7  -5   2   13.01    2.88
  -7  -5  -2   16.10    2.93
   7  -5   3  359.72   11.44
  -7  -5  -3  367.64   15.85
  -7  -5  -3  369.02   16.53
   7  -5   3  372.86   15.81
  -7  -5  -3  355.54   15.19
  -7  -5  -4    7.54    2.47
  -7  -5  -4    7.03    2.14
   7  -5   4    4.78    2.32
   7  -5   4    6.88    1.78
  -7  -5  -4    6.15    2.21
   7  -5   5   14.91    2.30
  -7  -5  -5   11.44    2.99
  -7  -5  -5   17.28    3.10
  -7  -5  -6  280.70   14.17
   7  -5   6  274.22   11.26
  -7  -5  -6  289.96   13.33
   7  -3  -9  230.45   12.48
  -7  -3   9  217.58   11.47
   7  -3  -9  230.93   12.86
  -7  -3   9  250.19   11.05
  -7  -3   9  199.99   11.55
   7  -3  -8   70.50    6.25
  -7  -3   8   61.24    6.00
   7  -3  -8   61.25    6.30
  -7  -3   8   73.00    5.46
  -7  -3   8   55.79    5.81
  -7  -3   7  107.85    8.10
   7  -3  -7   91.50    7.20
   7  -3  -7   97.80    8.12
  -7  -3   7  113.45    6.90
  -7  -3   7  112.54    8.25
   7  -3  -7  112.01    8.14
   7  -3  -7   93.11    7.17
  -7  -3   6  181.57   11.07
   7  -3  -6  165.34    9.70
  -7  -3   6  188.96    9.09
  -7  -3   6  154.13   10.36
   7  -3  -6  183.28   10.44
   7  -3  -6  162.38    9.45
   7  -3  -6  173.23   10.37
  -7  -3   5   74.12    5.12
   7  -3  -5   78.59    7.99
  -7  -3   5   64.50    6.67
   7  -3  -5   73.40    6.14
   7  -3  -5   67.40    6.33
   7  -3  -5   61.94    5.55
   7  -3  -4  587.42   22.13
   7  -3  -4  677.34   27.03
   7  -3  -4  627.32   23.68
  -7  -3   4  648.90   20.70
  -7  -3   4  609.46   25.37
   7  -3  -4  598.71   22.93
   7  -3  -4  621.66   22.48
  -7  -3   3  114.79    9.50
   7  -3  -3  140.78   10.42
  -7  -3   3  117.04    9.29
   7  -3  -3  125.61    8.36
   7  -3  -3  116.82    7.44
   7  -3  -3  119.35    8.88
  -7  -3   3  122.83    5.92
   7  -3  -3  128.70    7.40
   7  -3  -2    9.16    3.17
  -7  -3   2   13.65    3.60
  -7  -3   2    9.34    1.15
  -7  -3   2    6.38    2.24
   7  -3  -2    8.72    2.73
   7  -3  -2    8.90    1.92
   7  -3  -2    9.08    2.45
  -7  -3   1  989.44   35.43
   7  -3  -1 1075.89   34.85
  -7  -3   1  981.59   31.92
   7  -3  -1 1028.37   34.28
  -7  -3   1 1008.05   32.55
   7  -3  -1 1045.19   33.25
   7  -3  -1  932.18   28.76
   7  -3   0   10.90    1.11
   7  -3   0   14.43    3.02
  -7  -3   0   13.16    3.36
   7  -3   0   11.50    2.39
  -7  -3   0    9.72    2.36
   7  -3   0   11.42    2.64
   7  -3   0   13.95    3.03
   7  -3   1   41.94    4.02
   7  -3   1   33.95    3.72
  -7  -3  -1   30.96    3.81
  -7  -3  -1   40.17    4.13
  -7  -3  -1   39.37    4.48
   7  -3   1   37.44    4.42
  -7  -3  -1   40.16    5.32
   7  -3   1   54.74    5.16
  -7  -3  -1   35.07    4.84
   7  -3   2  684.54   21.40
  -7  -3  -2  662.98   23.68
  -7  -3  -2  751.10   24.62
  -7  -3  -2  650.21   26.00
  -7  -3  -2  665.61   24.26
   7  -3   2  657.42   23.70
  -7  -3  -2  658.36   26.55
  -7  -3  -3   15.76    2.82
  -7  -3  -3   17.18    2.87
  -7  -3  -3   12.08    2.67
  -7  -3  -3   13.92    3.10
  -7  -3  -3   17.37    3.72
  -7  -3  -4  199.19   10.55
  -7  -3  -4  225.45   10.42
  -7  -3  -4  193.77   10.95
  -7  -3  -4  184.01   11.79
  -7  -3  -4  198.81   11.95
  -7  -3  -5  165.93    9.57
  -7  -3  -5  150.96    9.74
  -7  -3  -5  174.60    9.05
  -7  -3  -5  160.50   10.66
  -7  -3  -6  106.13    7.86
  -7  -3  -6  115.30    6.01
  -7  -3  -6  122.55    7.27
  -7  -3  -6   98.28    7.90
  -7  -3  -6  110.62    7.72
  -7  -3  -7  206.85   11.56
  -7  -3  -7  220.78   12.33
  -7  -3  -8   38.57    4.79
   7  -1 -10   12.55    2.92
  -7  -1  10   12.88    3.19
  -7  -1  10   18.47    3.14
   7  -1  -9   73.29    6.27
  -7  -1   9   83.92    7.10
  -7  -1   9   77.11    6.26
   7  -1  -8  334.44   15.27
  -7  -1   8  355.13   16.78
   7  -1  -8  330.96   14.61
  -7  -1   8  383.59   15.87
  -7  -1   7   38.04    5.29
   7  -1  -7   36.42    4.05
  -7  -1   7   48.92    4.97
   7  -1  -7   36.84    4.40
  -7  -1   7   35.85    4.87
   7  -1  -6   65.54    5.76
   7  -1  -6   90.08    8.78
   7  -1  -6   72.54    5.62
  -7  -1   6   92.75    6.84
   7  -1  -6   83.56    4.85
  -7  -1   6   63.59    6.31
   7  -1  -5  467.66   21.81
  -7  -1   5  436.28   20.51
   7  -1  -5  423.05   16.57
   7  -1  -5  451.92   16.13
  -7  -1   5  431.08   18.83
   7  -1  -5  409.48   19.75
   7  -1  -4  404.72   17.48
   7  -1  -4  394.41   15.59
  -7  -1   4  370.09   17.23
  -7  -1   4  382.65   19.08
   7  -1  -4  370.69   18.41
   7  -1  -3  254.01   15.09
  -7  -1   3  244.25   14.66
   7  -1  -3  232.75   10.19
   7  -1  -3  253.48   11.96
   7  -1  -3  260.78   12.47
  -7  -1   3  233.97   12.67
   7  -1  -3  241.17   14.05
   7  -1  -2  219.04    8.91
   7  -1  -2  235.12    9.94
   7  -1  -2  224.95   13.74
  -7  -1   2  217.71   13.74
  -7  -1   2  224.33   12.06
   7  -1  -2  205.56   11.73
   7  -1  -2  217.97    9.03
   7  -1  -1  721.79   27.00
  -7  -1   1  657.84   27.49
  -7  -1   1  686.12   24.61
   7  -1  -1  684.89   25.99
   7  -1  -1  638.71   19.37
   7  -1  -1  673.21   23.51
  -7  -1   0  764.75   30.25
   7  -1   0  761.40   25.95
   7  -1   0  761.55   29.28
   7  -1   0  809.73   25.71
  -7  -1   0  754.33   26.64
  -7  -1  -1  172.38   10.16
  -7  -1  -1  173.17    8.47
   7  -1   1  164.61    8.21
   7  -1   1  158.19   10.83
  -7  -1  -1  164.49    6.17
   7  -1   1  172.54    8.16
  -7  -1  -1  158.99   10.39
  -7  -1  -2  497.40   21.09
  -7  -1  -2  492.00   16.06
  -7  -1  -2  512.90   18.00
   7  -1   2  480.05   21.23
   7  -1   2  480.91   16.23
   7  -1   2  475.26   16.81
  -7  -1  -2  447.70   16.13
  -7  -1  -2  475.39   20.54
  -7  -1  -3  710.02   28.26
  -7  -1  -3  702.66   23.43
  -7  -1  -3  739.77   24.74
   7  -1   3  727.71   28.15
  -7  -1  -3  730.11   23.35
   7  -1   3  744.88   23.65
  -7  -1  -3  671.02   26.72
  -7  -1  -3  708.03   23.32
  -7  -1  -4  204.53   13.03
  -7  -1  -4  206.45   10.24
  -7  -1  -4  189.99   10.79
  -7  -1  -4  217.66   10.77
  -7  -1  -4  222.12    9.07
  -7  -1  -4  214.31   12.20
  -7  -1  -5  122.01    9.83
  -7  -1  -5  118.62    7.89
  -7  -1  -5  132.80    8.14
  -7  -1  -5  125.10    7.69
  -7  -1  -5  124.22    8.06
  -7  -1  -5  147.82    6.63
  -7  -1  -5  114.89    8.82
  -7  -1  -6  634.82   26.42
  -7  -1  -6  623.63   23.57
  -7  -1  -6  666.24   22.82
  -7  -1  -6  602.51   22.66
  -7  -1  -6  694.33   23.97
  -7  -1  -6  637.02   19.55
  -7  -1  -6  614.05   25.24
  -7  -1  -6  615.62   25.90
  -7  -1  -7   64.22    6.96
  -7  -1  -7   61.71    5.82
  -7  -1  -7   66.53    5.18
  -7  -1  -7   58.15    5.29
   7  -1   7   74.71    6.16
  -7  -1  -7   76.88    6.22
  -7  -1  -7   68.58    7.01
  -7  -1  -7   64.57    6.02
  -7  -1  -8   70.12    7.04
  -7  -1  -8   63.03    5.83
  -7  -1  -8   64.81    5.05
  -7  -1  -8   48.24    4.93
   7  -1   8   60.03    5.50
  -7  -1  -8   60.68    5.75
  -7  -1  -9  177.58   11.31
   7  -1   9  184.41    9.92
   7   1 -10   19.91    3.18
  -7   1  10   17.07    3.26
  -7   1  10   20.23    3.21
  -7   1  10   11.18    3.27
  -7   1   9   91.62    6.73
  -7   1   9   93.56    7.14
  -7   1   9   79.77    7.29
   7   1  -9   80.16    6.38
   7   1  -8  328.63   15.15
   7   1  -8  349.15   14.70
  -7   1   8  378.96   15.67
  -7   1   8  350.17   17.37
   7   1  -8  385.37   17.38
  -7   1   7   33.35    5.26
   7   1  -7   33.31    3.78
   7   1  -7   33.58    5.53
  -7   1   7   38.60    4.46
   7   1  -7   33.26    4.94
   7   1  -7   32.31    3.99
   7   1  -6   58.71    6.96
  -7   1   6   53.72    6.74
   7   1  -6   58.51    4.97
  -7   1   6   60.51    5.35
   7   1  -6   51.94    5.71
   7   1  -6   55.47    5.09
   7   1  -5  454.06   20.16
  -7   1   5  401.37   20.17
   7   1  -5  399.82   16.04
  -7   1   5  443.78   17.13
   7   1  -5  433.65   18.09
   7   1  -5  395.90   16.46
  -7   1   4  362.89   19.11
  -7   1   4  373.61   15.09
   7   1  -4  377.99   16.03
   7   1  -4  370.62   18.64
   7   1  -4  387.28   17.95
   7   1  -3  252.57   11.58
  -7   1   3  250.66   15.16
  -7   1   3  251.98   10.81
   7   1  -3  250.44   13.40
   7   1  -3  262.93   15.00
  -7   1   2  242.31   14.52
  -7   1   2  217.85    9.17
   7   1  -2  234.57    9.72
  -7   1   2  239.67    9.13
   7   1  -2  243.28   14.03
   7   1  -2  244.53   14.12
   7   1  -2  249.60    9.08
   7   1  -1  688.19   19.87
  -7   1   1  671.69   27.22
  -7   1   1  629.89   19.54
   7   1  -1  669.51   19.73
   7   1  -1  734.94   20.03
   7   1  -1  698.06   27.10
   7   1  -1  708.55   27.51
  -7   1   1  662.63   28.28
  -7   1   1  673.91   23.01
   7   1  -1  692.80   22.66
  -7   1   0  809.70   30.36
   7   1   0  867.91   30.70
   7   1   0  844.57   31.04
  -7   1   0  853.20   32.99
  -7   1   0  783.26   28.40
   7   1   0  824.76   27.98
  -7   1  -1  195.89   10.93
   7   1   1  213.43   11.93
   7   1   1  188.12   11.90
  -7   1  -1  190.31   12.90
  -7   1  -1  197.93    6.83
   7   1   1  202.89   11.04
  -7   1  -1  175.44   11.07
  -7   1  -2  476.97   16.00
  -7   1  -2  466.08   20.95
  -7   1  -2  487.24   18.28
  -7   1  -2  453.88   20.42
  -7   1  -2  485.60   20.39
  -7   1  -2  506.10   18.27
   7   1   2  481.84   15.58
  -7   1  -2  445.90   16.01
   7   1   2  482.80   20.11
   7   1   2  516.88   20.53
  -7   1  -2  475.61   17.38
   7   1   2  478.39   20.85
  -7   1  -2  462.03   21.97
  -7   1  -3  689.60   22.65
  -7   1  -3  644.18   26.02
  -7   1  -3  724.54   26.40
   7   1   3  689.35   22.17
  -7   1  -3  665.65   21.55
   7   1   3  714.18   25.84
  -7   1  -3  685.99   23.38
   7   1   3  705.10   26.84
  -7   1  -3  685.03   28.37
  -7   1  -3  691.30   23.27
  -7   1  -3  663.20   22.55
   7   1   3  750.44   27.03
  -7   1  -3  661.42   27.48
  -7   1  -4  191.46    8.03
  -7   1  -4  197.67    9.43
  -7   1  -4  195.11   10.44
  -7   1  -4  191.31   11.44
  -7   1  -4  187.89   11.21
   7   1   4  192.85    9.28
   7   1   4  206.31   11.27
  -7   1  -4  191.34   10.18
   7   1   4  214.74   11.33
  -7   1  -4  209.63    9.62
  -7   1  -4  185.43    9.76
  -7   1  -4  201.03   12.40
  -7   1  -4  181.80    9.49
   7   1   4  224.94   12.27
  -7   1  -4  203.25   12.99
  -7   1  -5  126.29    5.12
  -7   1  -5  124.11    7.49
  -7   1  -5  119.10    8.64
  -7   1  -5  128.22    5.04
   7   1   5  150.41    8.28
  -7   1  -5  132.59    9.03
   7   1   5  128.90    7.41
   7   1   5  137.55    8.71
  -7   1  -5  121.91    8.29
   7   1   5  123.79    8.44
  -7   1  -5  116.86    7.75
  -7   1  -5  125.59    7.72
  -7   1  -5  123.99    9.57
  -7   1  -5  132.80    8.09
  -7   1  -5  116.41    9.74
  -7   1  -6  582.19   21.75
  -7   1  -6  625.94   23.87
   7   1   6  579.70   22.01
  -7   1  -6  613.19   18.19
  -7   1  -6  610.82   23.69
   7   1   6  664.95   22.06
   7   1   6  609.14   22.55
  -7   1  -6  642.23   23.90
  -7   1  -6  599.05   22.97
  -7   1  -6  667.22   22.96
  -7   1  -6  550.46   24.88
  -7   1  -6  610.42   22.56
  -7   1  -6  572.26   25.35
  -7   1  -7   56.28    4.99
  -7   1  -7   51.31    5.51
   7   1   7   54.43    5.07
   7   1   7   57.73    4.88
  -7   1  -7   59.98    3.44
   7   1   7   55.65    5.02
  -7   1  -7   60.23    6.14
  -7   1  -7   47.90    5.50
  -7   1  -7   59.34    5.65
  -7   1  -7   50.26    5.04
  -7   1  -7   52.93    6.31
  -7   1  -8   66.53    7.07
  -7   1  -8   67.95    5.58
  -7   1  -8   80.40    6.93
   7   1   8   71.78    5.89
   7   1   8   73.87    5.63
  -7   1  -8   73.84    7.06
  -7   1  -8   63.01    6.50
  -7   1  -8   74.22    6.34
  -7   1  -8   65.41    5.83
  -7   1  -9  159.76   11.16
   7   1   9  176.31    9.59
   7   1   9  178.42    9.06
  -7   1  -9  152.98    9.42
   7   3  -9  258.17   14.48
  -7   3   9  252.73   11.86
  -7   3   9  241.84   13.15
   7   3  -8   80.23    7.72
  -7   3   8   81.05    6.16
   7   3  -7  131.98    9.69
   7   3  -7  118.91    7.56
  -7   3   6  197.09    7.82
   7   3  -6  178.07    9.69
  -7   3   6  193.81   12.29
   7   3  -6  207.96   12.17
  -7   3   6  205.92   10.05
  -7   3   5   94.57    4.89
  -7   3   5   95.13    6.48
   7   3  -5   76.39    5.81
  -7   3   5   87.22    8.16
   7   3  -5   89.93    8.41
   7   3  -5   85.60    7.37
   7   3  -5   83.49    7.80
  -7   3   5   95.19    6.35
  -7   3   4  692.88   23.71
   7   3  -4  629.59   22.99
   7   3  -4  689.79   26.96
  -7   3   4  628.25   26.97
   7   3  -4  705.23   25.57
   7   3  -4  688.68   28.20
  -7   3   4  696.23   23.37
  -7   3   3  126.50    7.30
  -7   3   3  135.95    7.64
   7   3  -3  116.81    7.10
   7   3  -3  132.53    8.47
  -7   3   3  106.46    9.34
   7   3  -3  134.99    8.64
   7   3  -3  136.71   10.47
   7   3  -3  129.41    9.53
   7   3  -2    4.59    2.06
   7   3  -2    3.53    1.67
  -7   3   2    4.60    1.56
   7   3  -2    2.60    2.01
  -7   3   2    3.24    1.90
  -7   3   2    3.29    1.54
  -7   3   2    3.93    2.63
   7   3  -2    3.50    2.54
   7   3  -2    7.18    2.71
   7   3  -1 1015.74   32.72
  -7   3   1 1060.56   31.95
   7   3  -1 1057.67   32.97
  -7   3   1  991.85   34.99
  -7   3   1  977.19   35.54
   7   3  -1 1032.41   32.64
   7   3  -1 1075.74   35.27
   7   3   0   14.95    2.67
  -7   3   0    5.14    1.74
   7   3   0    6.30    1.78
  -7   3   0    7.49    2.01
   7   3   0    5.50    1.73
  -7   3   0    7.61    2.59
  -7   3   0    7.29    2.96
  -7   3   0    6.22    2.46
   7   3   0   13.17    3.03
  -7   3   0    3.51    2.25
   7   3   1   40.34    4.64
   7   3   1   40.29    3.80
  -7   3  -1   44.91    4.43
  -7   3  -1   40.37    5.65
  -7   3  -1   43.86    4.76
  -7   3  -1   39.99    4.16
   7   3   1   39.33    3.81
   7   3   1   42.60    4.85
  -7   3  -1   39.76    5.16
   7   3   2  748.79   26.55
   7   3   2  731.61   23.73
  -7   3  -2  705.40   27.41
  -7   3  -2  651.96   26.68
   7   3   2  748.75   23.99
  -7   3  -2  732.06   25.42
  -7   3  -2  705.98   25.36
  -7   3  -2  720.99   28.05
  -7   3  -2  729.65   25.28
  -7   3  -2  671.51   23.80
   7   3   2  725.23   22.82
   7   3   2  718.59   26.32
   7   3   3   32.98    3.39
   7   3   3   19.82    3.50
   7   3   3   26.04    3.13
  -7   3  -3   23.26    3.62
  -7   3  -3   17.99    3.62
  -7   3  -3   22.50    3.66
  -7   3  -3   31.70    3.87
  -7   3  -3   24.26    3.36
   7   3   3   24.54    2.20
  -7   3  -3   18.12    3.69
  -7   3  -3   21.43    2.54
  -7   3  -3   24.08    4.66
  -7   3  -3   27.55    4.51
   7   3   4  220.30   10.35
  -7   3  -4  209.98   12.43
  -7   3  -4  215.17   12.60
  -7   3  -4  216.22   10.95
  -7   3  -4  226.65   11.00
  -7   3  -4  235.94   13.78
  -7   3  -4  227.74   12.05
   7   3   4  218.25   12.38
  -7   3  -4  219.92   12.98
   7   3   4  224.40   10.21
   7   3   4  228.69   12.25
  -7   3  -5  181.35    9.16
   7   3   5  178.98    9.12
   7   3   5  167.08    8.07
  -7   3  -5  177.30    9.74
  -7   3  -5  198.57    9.91
  -7   3  -5  166.48   10.72
   7   3   5  182.46   10.82
  -7   3  -5  186.72   10.83
  -7   3  -5  178.68    7.20
   7   3   5  171.20    8.75
  -7   3  -6  114.72    7.42
   7   3   6  109.66    6.56
  -7   3  -6  103.50    7.29
  -7   3  -6  120.07    7.50
   7   3   6  132.03    8.80
  -7   3  -6  122.41    6.31
  -7   3  -6  106.32    8.37
   7   3   6  109.83    6.74
  -7   3  -6  108.35    9.36
  -7   3  -7  257.81   12.46
   7   3   7  267.42   11.67
  -7   3  -7  251.52   12.31
   7   3   7  253.89   11.42
  -7   3  -7  296.74   12.71
  -7   3  -7  267.10   14.07
  -7   3  -7  228.81   14.37
   7   3   8   45.55    4.35
   7   3   8   49.20    4.52
   7   3   8   44.16    3.97
  -7   3  -8   54.67    6.07
  -7   3  -8   46.89    5.93
  -7   5   7   28.75    3.58
   7   5  -7   24.95    4.50
  -7   5   7   23.88    4.06
   7   5  -7   27.38    4.97
  -7   5   6    9.62    1.88
  -7   5   6    7.86    2.12
   7   5  -6   12.03    3.29
  -7   5   6    9.85    3.00
   7   5  -6    8.25    3.27
  -7   5   5  323.52   13.65
  -7   5   5  383.96   15.22
   7   5  -5  403.00   17.71
  -7   5   5  343.83   16.88
   7   5  -5  411.90   19.07
  -7   5   4   88.76    6.15
  -7   5   4   76.93    5.77
  -7   5   4   97.32    6.56
   7   5  -4   75.98    5.93
   7   5  -4   90.50    7.58
  -7   5   4   83.62    5.54
  -7   5   4   97.16    7.95
   7   5  -4  109.33    7.90
   7   5  -4   90.03    8.31
   7   5  -4   98.51    7.31
  -7   5   3   47.81    4.48
  -7   5   3   39.46    4.26
  -7   5   3   45.37    4.49
   7   5  -3   51.94    5.57
   7   5  -3   52.17    5.43
   7   5  -3   47.69    4.91
  -7   5   3   47.57    4.65
  -7   5   3   46.34    5.58
   7   5  -3   45.04    5.83
  -7   5   2  241.78   11.24
   7   5  -2  268.59   13.06
  -7   5   2  218.46   11.49
  -7   5   2  228.10   12.11
  -7   5   2  230.60   12.78
   7   5  -2  244.00   13.92
   7   5  -2  255.64   12.44
   7   5  -2  232.91   11.31
   7   5  -1   73.92    6.26
  -7   5   1   73.17    5.64
  -7   5   1   61.56    5.79
  -7   5   1   73.25    6.46
  -7   5   1   72.35    6.95
   7   5  -1   71.52    6.02
   7   5  -1   75.78    6.25
   7   5  -1   66.59    6.88
   7   5  -1   70.45    5.42
   7   5   0  280.67   13.15
  -7   5   0  283.31   12.87
   7   5   0  299.60   13.00
  -7   5   0  282.55   13.74
  -7   5   0  294.59   15.65
  -7   5   0  271.82   13.32
   7   5   0  294.15   13.23
   7   5   0  288.26   13.37
   7   5   0  294.95   15.31
   7   5   0  280.14   12.37
  -7   5   0  299.86   13.83
  -7   5  -1   58.10    5.64
   7   5   1   56.34    5.26
   7   5   1   51.02    4.70
  -7   5  -1   58.53    5.66
  -7   5  -1   58.51    5.44
  -7   5  -1   53.68    5.00
   7   5   1   45.54    4.51
   7   5   1   51.13    5.85
   7   5   1   51.14    4.46
  -7   5  -1   52.12    4.85
   7   5   2   15.79    2.76
  -7   5  -2   15.75    3.23
  -7   5  -2   17.96    3.39
  -7   5  -2   14.03    2.67
  -7   5  -2   13.61    3.01
   7   5   2   15.19    2.58
   7   5   2   18.59    3.63
  -7   5  -2   14.67    2.86
   7   5   3  430.97   16.45
  -7   5  -3  445.88   18.38
  -7   5  -3  431.95   18.54
   7   5   3  425.64   16.63
  -7   5  -3  438.67   18.00
   7   5   3  419.07   15.21
   7   5   3  432.25   19.10
  -7   5  -3  428.74   17.41
   7   5   4    6.55    1.90
  -7   5  -4    4.81    2.70
   7   5   4    6.91    2.07
  -7   5  -4    3.90    2.40
  -7   5  -4    4.13    2.10
   7   5   4    7.76    1.55
  -7   5  -4    7.70    2.55
   7   5   4    3.60    2.31
  -7   5  -4    7.30    2.52
   7   5   5   17.55    2.82
  -7   5  -5   16.02    3.65
   7   5   5   17.47    1.60
  -7   5  -5   20.83    3.67
   7   5   5   22.76    3.73
  -7   5  -5   15.67    3.23
   7   5   6  325.06   13.53
   7   5   6  305.73   11.14
  -7   5  -6  351.55   16.22
   7   5   6  346.25   15.44
  -7   7   1  161.40    9.41
   7   7  -1  161.48   10.40
   7   7  -1  181.21   10.16
  -7   7   0   77.93    6.18
   7   7   0   81.82    7.16
  -7   7   0   89.06    6.90
   7   7   0   85.24    6.59
  -7   7  -1   40.29    4.34
   7   7   1   40.23    4.99
  -7   7  -1   38.52    4.64
  -8  -6   4   48.16    5.35
   8  -6  -4   44.16    3.46
  -8  -6   4   47.59    5.57
   8  -6  -4   42.64    4.80
   8  -6  -4   48.06    5.40
  -8  -6   4   49.97    4.89
  -8  -6   3   34.02    4.92
   8  -6  -3   33.37    2.94
   8  -6  -3   30.62    4.48
  -8  -6   3   34.83    4.24
   8  -6  -3   34.55    4.26
  -8  -6   2  274.55   14.68
   8  -6  -2  269.78   13.72
  -8  -6   2  295.58   13.39
   8  -6  -2  289.19   10.64
   8  -6  -2  263.75   11.03
   8  -6  -1   18.43    3.26
   8  -6  -1   13.15    2.17
  -8  -6   1   13.58    3.49
  -8  -6   1   19.45    3.39
   8  -6  -1    8.95    2.67
   8  -6   0    7.86    2.42
  -8  -6   0    4.66    2.64
   8  -6   0    4.61    2.18
  -8  -6  -1  217.40   12.58
   8  -6   1  198.26    8.98
   8  -6   1  219.57   10.90
   8  -6   1  207.29   10.85
   8  -6   2   27.90    2.54
  -8  -6  -2   27.93    4.50
   8  -6   2   25.85    3.61
  -8  -6  -3   27.79    3.96
   8  -6   3   27.66    3.65
   8  -6   3   28.09    2.56
  -8  -6  -4   92.51    7.20
   8  -6   4   96.98    6.67
   8  -6   4   97.25    5.06
  -8  -6  -4  105.72    6.57
  -8  -4   7   32.48    4.49
  -8  -4   7   35.44    3.32
   8  -4  -7   27.98    4.09
  -8  -4   7   32.98    4.48
  -8  -4   6  201.64   11.45
  -8  -4   6  201.00    8.51
   8  -4  -6  171.89   10.16
   8  -4  -6  178.28    9.35
  -8  -4   6  193.13   11.23
   8  -4  -6  198.13   10.29
  -8  -4   5  116.34    8.60
   8  -4  -5  112.16    7.21
  -8  -4   5  114.90    5.57
   8  -4  -5  102.06    8.14
   8  -4  -5  100.63    6.36
   8  -4  -5  103.76    6.90
   8  -4  -5  102.83    7.39
   8  -4  -5  101.64    7.15
   8  -4  -4   57.96    5.38
  -8  -4   4   64.01    6.58
   8  -4  -4   61.56    5.25
  -8  -4   4   70.21    3.68
   8  -4  -4   68.10    6.41
   8  -4  -4   61.80    4.50
   8  -4  -4   63.20    5.03
   8  -4  -4   63.43    5.36
  -8  -4   3  141.71   10.22
  -8  -4   3  136.24    9.82
   8  -4  -3  153.00   10.33
   8  -4  -3  127.71    7.76
   8  -4  -3  139.28    9.46
   8  -4  -3  137.21    8.46
  -8  -4   3  137.42    8.26
   8  -4  -3  143.74    7.49
   8  -4  -3  135.78    7.99
  -8  -4   2  289.72   15.24
   8  -4  -2  326.81   15.25
   8  -4  -2  280.71   14.30
   8  -4  -2  290.99   12.62
   8  -4  -2  290.20   13.17
  -8  -4   2  309.89   13.44
   8  -4  -2  283.99    9.90
   8  -4  -2  307.51   11.41
   8  -4  -2  307.34   12.92
  -8  -4   1  298.43   15.33
   8  -4  -1  314.27   14.24
   8  -4  -1  318.14   13.24
  -8  -4   1  303.24   13.00
   8  -4  -1  290.40   14.29
  -8  -4   1  296.21   13.27
   8  -4  -1  285.63   12.48
   8  -4  -1  287.33   10.14
   8  -4   0   48.59    4.61
   8  -4   0   42.24    2.42
   8  -4   0   47.58    5.11
  -8  -4   0   51.36    5.05
   8  -4   0   43.79    4.33
   8  -4   0   45.84    4.24
  -8  -4   0   45.62    4.38
  -8  -4   0   41.20    5.39
   8  -4   1  226.00   10.02
   8  -4   1  217.90   10.44
  -8  -4  -1  266.75   11.98
   8  -4   1  213.64   10.76
   8  -4   1  221.19   11.41
  -8  -4  -1  217.51   10.68
   8  -4   1  237.55   11.10
  -8  -4  -1  244.76   13.39
  -8  -4  -1  223.58   12.21
   8  -4   2  430.67   14.40
  -8  -4  -2  418.57   16.55
   8  -4   2  412.22   16.59
   8  -4   2  418.49   16.84
  -8  -4  -2  388.92   16.80
  -8  -4  -2  402.58   17.93
  -8  -4  -3   49.26    4.73
  -8  -4  -3   47.73    5.20
  -8  -4  -3   65.36    5.26
   8  -4   3   51.58    4.83
  -8  -4  -3   54.76    5.28
  -8  -4  -4  175.75    9.64
  -8  -4  -4  173.93   10.02
  -8  -4  -4  195.01    9.56
  -8  -4  -4  188.45   10.96
  -8  -4  -5  175.41    9.64
  -8  -4  -5  188.80    9.33
  -8  -4  -5  149.18    9.87
  -8  -4  -5  157.97    9.69
  -8  -4  -6   87.28    6.12
  -8  -4  -6   76.39    6.64
  -8  -4  -6   86.68    7.23
  -8  -4  -7   35.95    4.67
  -8  -4  -7   40.36    5.11
   8  -2  -9  222.69   11.35
  -8  -2   9  183.65   10.85
   8  -2  -9  223.44   12.50
  -8  -2   9  205.54   10.21
  -8  -2   9  188.16   10.95
   8  -2  -8   30.22    4.04
  -8  -2   8   31.01    4.51
   8  -2  -8   29.93    4.48
  -8  -2   8   29.64    3.65
  -8  -2   8   22.51    3.77
   8  -2  -7    6.27    2.03
  -8  -2   7    2.53    2.30
  -8  -2   7    7.31    2.07
   8  -2  -7    8.31    2.85
  -8  -2   7    9.35    2.87
  -8  -2   6  651.06   21.63
   8  -2  -6  586.67   22.88
  -8  -2   6  587.42   22.89
   8  -2  -5  206.93   13.19
  -8  -2   5  175.82   11.64
   8  -2  -5  185.86    9.55
   8  -2  -5  179.60   11.29
  -8  -2   5  227.67   10.25
   8  -2  -5  194.20   10.71
  -8  -2   5  194.47   11.24
   8  -2  -5  184.62    9.35
   8  -2  -5  187.26   11.45
   8  -2  -4  145.39   10.81
  -8  -2   4  132.33   10.04
   8  -2  -4  120.57    8.78
  -8  -2   4  139.48    7.57
   8  -2  -4  134.73    9.41
  -8  -2   4  133.67    9.17
  -8  -2   3  604.83   25.51
   8  -2  -3  675.88   26.12
   8  -2  -3  578.03   20.31
   8  -2  -3  608.38   20.72
  -8  -2   3  626.85   24.29
   8  -2  -3  592.13   23.35
   8  -2  -3  606.43   20.89
   8  -2  -3  632.91   24.42
  -8  -2   2  376.81   18.55
   8  -2  -2  404.47   18.08
   8  -2  -2  345.73   11.98
  -8  -2   2  349.41   16.59
   8  -2  -2  374.85   16.05
   8  -2  -2  341.45   13.07
   8  -2  -2  353.06   13.36
   8  -2  -2  369.66   16.67
  -8  -2   1  325.50   15.55
  -8  -2   1  325.21   17.42
   8  -2  -1  357.94   16.29
   8  -2  -1  357.85   15.15
   8  -2  -1  317.98   11.89
   8  -2  -1  343.29   12.75
   8  -2  -1  353.64   15.89
   8  -2   0  216.10   11.27
  -8  -2   0  231.64    8.17
   8  -2   0  201.73    8.33
  -8  -2   0  206.06    8.53
   8  -2   0  197.11    8.10
   8  -2   0  203.20   11.67
  -8  -2   0  206.25   13.04
  -8  -2   0  212.87   11.55
  -8  -2  -1  157.75    6.40
   8  -2   1  146.54    5.84
  -8  -2  -1  141.70    6.67
   8  -2   1  157.77    9.88
  -8  -2  -1  136.54    9.10
  -8  -2  -1  138.63   10.42
  -8  -2  -2  895.49   26.03
  -8  -2  -2  825.72   26.46
  -8  -2  -2  944.36   28.77
   8  -2   2  819.67   27.21
  -8  -2  -2  830.55   31.00
   8  -2   2  876.93   30.67
  -8  -2  -2  830.63   26.82
  -8  -2  -2  851.68   32.41
  -8  -2  -3   58.44    4.53
  -8  -2  -3   61.80    4.32
  -8  -2  -3   60.11    4.81
  -8  -2  -3   56.41    6.05
  -8  -2  -3   53.41    4.50
  -8  -2  -3   52.22    6.30
  -8  -2  -4   32.16    3.55
  -8  -2  -4   33.05    4.90
  -8  -2  -4   38.94    3.69
  -8  -2  -4   36.38    3.94
  -8  -2  -4   34.45    3.49
  -8  -2  -4   28.14    4.36
  -8  -2  -4   31.93    4.96
  -8  -2  -5  371.33   18.26
  -8  -2  -5  360.55   15.35
  -8  -2  -5  357.69   18.19
  -8  -2  -5  380.35   15.40
  -8  -2  -5  409.82   15.14
  -8  -2  -5  408.10   14.45
  -8  -2  -5  345.77   17.08
  -8  -2  -5  359.01   15.10
  -8  -2  -6   81.43    7.75
  -8  -2  -6   82.73    6.49
  -8  -2  -6   90.33    5.92
  -8  -2  -6   95.92    5.60
  -8  -2  -6   81.20    6.23
  -8  -2  -7   35.47    5.02
  -8  -2  -7   28.81    3.87
  -8  -2  -7   32.98    3.30
  -8  -2  -8  215.24   12.75
  -8  -2  -8  201.14   11.19
  -8   0   9   12.30    3.29
  -8   0   9   24.23    3.33
  -8   0   9   22.63    3.48
   8   0  -9   19.15    3.06
   8   0  -8   90.00    6.69
   8   0  -8   88.63    6.28
  -8   0   8  102.08    6.81
  -8   0   8   99.34    7.13
   8   0  -8   96.90    4.95
   8   0  -8  108.51    8.03
   8   0  -7  367.47   17.67
   8   0  -7  331.88   13.93
  -8   0   7  354.03   14.42
   8   0  -7  342.30   12.47
   8   0  -7  365.52   15.96
   8   0  -6  170.63    9.30
   8   0  -6  199.26   12.11
  -8   0   6  172.80   11.71
   8   0  -6  181.31    9.08
  -8   0   6  183.42    9.28
   8   0  -6  191.00   10.50
   8   0  -5  382.96   19.34
   8   0  -5  383.17   17.33
  -8   0   5  363.57   18.46
  -8   0   5  367.06   14.48
   8   0  -5  381.90   15.84
   8   0  -4  338.56   13.33
   8   0  -4  345.47   15.75
  -8   0   4  349.98   18.16
   8   0  -4  355.70   13.21
  -8   0   4  361.56   13.33
   8   0  -4  389.58   14.74
  -8   0   4  337.83   14.96
   8   0  -4  351.54   17.65
   8   0  -3  259.13    9.92
  -8   0   3  288.03   15.76
   8   0  -3  258.49    9.75
   8   0  -3  274.33   10.78
  -8   0   3  262.82   11.94
   8   0  -3  300.08   15.56
   8   0  -3  278.19   12.63
  -8   0   2 1164.99   41.53
   8   0  -2 1176.78   32.43
   8   0  -2 1205.25   32.80
  -8   0   2 1174.85   36.01
   8   0  -2 1269.29   40.39
   8   0  -2 1165.37   32.55
   8   0  -2 1290.38   41.90
  -8   0   1   78.45    4.85
  -8   0   1   73.89    7.43
  -8   0   1   75.07    4.75
   8   0  -1   90.22    7.01
   8   0  -1   83.61    7.49
  -8   0   0    0.42    1.22
  -8   0   0    3.37    2.63
   8   0   0    1.27    2.03
   8   0   0    1.80    1.23
   8   0   0    0.25    1.48
   8   0   0    4.87    2.20
  -8   0   0    3.40    2.49
  -8   0  -1 1206.49   38.63
  -8   0  -1 1132.93   33.57
  -8   0  -1 1092.09   38.91
  -8   0  -1 1207.08   37.90
   8   0   1 1173.12   33.88
   8   0   1 1125.84   39.43
   8   0   1 1178.86   37.33
   8   0   1 1271.06   40.67
  -8   0  -1 1168.66   41.87
  -8   0  -2   14.54    3.23
  -8   0  -2   13.35    3.10
  -8   0  -2   13.92    2.77
   8   0   2   13.61    1.36
   8   0   2    9.06    2.92
   8   0   2   10.25    2.40
  -8   0  -2   10.67    2.73
   8   0   2   22.97    4.02
  -8   0  -2   17.07    3.86
  -8   0  -3  102.61    8.49
  -8   0  -3   90.44    6.95
  -8   0  -3  102.07    5.11
  -8   0  -3   93.21    6.96
  -8   0  -3   94.20    5.29
   8   0   3  100.87    6.69
  -8   0  -3   89.46    6.88
   8   0   3   97.36    7.91
  -8   0  -3   87.40    8.63
  -8   0  -4  725.02   29.20
  -8   0  -4  731.08   24.28
  -8   0  -4  662.93   26.64
  -8   0  -4  734.33   23.90
  -8   0  -4  743.57   26.61
  -8   0  -4  811.22   22.34
   8   0   4  742.89   25.48
  -8   0  -4  752.70   24.79
  -8   0  -4  736.96   26.48
  -8   0  -4  791.85   24.90
  -8   0  -4  680.26   29.50
  -8   0  -5    3.03    2.01
  -8   0  -5    4.91    1.67
  -8   0  -5    4.45    2.12
  -8   0  -5    2.69    1.47
  -8   0  -5    1.02    1.53
   8   0   5    1.96    1.36
   8   0   5    5.01    2.31
  -8   0  -5    7.42    2.45
  -8   0  -5    3.93    2.15
  -8   0  -5    4.41    1.97
  -8   0  -6  452.63   20.30
  -8   0  -6  390.05   16.22
  -8   0  -6  412.38   17.18
  -8   0  -6  385.07   15.68
   8   0   6  407.82   15.37
  -8   0  -6  400.97   17.30
   8   0   6  409.61   17.31
  -8   0  -6  420.69   17.12
  -8   0  -6  380.70   17.36
  -8   0  -6  442.49   16.65
  -8   0  -7   65.73    6.94
  -8   0  -7   61.26    5.40
  -8   0  -7   66.01    5.77
  -8   0  -7   64.49    5.26
   8   0   7   71.23    5.16
  -8   0  -7   77.84    6.45
  -8   0  -7   60.74    6.15
  -8   0  -7   74.18    5.96
  -8   0  -8   12.20    3.07
  -8   0  -8   10.32    2.57
  -8   0  -8   11.54    2.39
   8   0   8   10.12    2.48
   8   0   8   14.14    2.53
  -8   0  -8    9.76    3.11
  -8   0  -8   11.52    2.88
  -8   0  -9  227.13   13.36
  -8   0  -9  223.70   11.45
   8   0   9  238.61   11.46
   8   0   9  232.69   10.56
   8   2  -9  210.07   12.65
   8   2  -9  186.32   10.39
  -8   2   8   27.20    3.56
   8   2  -8   26.69    4.51
   8   2  -8   25.76    3.46
   8   2  -7    7.01    2.07
   8   2  -7    8.05    2.98
  -8   2   7    8.22    2.19
  -8   2   7    7.02    3.09
   8   2  -7   10.93    3.18
   8   2  -6  622.57   23.67
  -8   2   6  566.02   25.22
  -8   2   6  630.45   21.87
  -8   2   6  549.74   24.74
   8   2  -6  632.79   25.23
  -8   2   5  190.49   12.92
  -8   2   5  204.49   10.11
  -8   2   5  200.23   12.96
   8   2  -5  206.27   11.10
   8   2  -5  217.22   12.66
   8   2  -5  213.43   12.86
   8   2  -4  145.40    5.56
  -8   2   4  151.11    5.13
  -8   2   4  129.88   10.50
  -8   2   4  129.31   10.41
   8   2  -4  148.14    8.68
   8   2  -4  144.02    9.96
   8   2  -4  163.77   11.03
   8   2  -3  610.73   19.15
  -8   2   3  583.24   25.81
   8   2  -3  635.80   21.49
   8   2  -3  584.97   20.12
  -8   2   3  612.57   26.05
   8   2  -3  633.43   21.57
   8   2  -3  589.75   25.51
   8   2  -3  649.24   25.56
  -8   2   3  636.84   20.66
   8   2  -2  381.27   13.94
  -8   2   2  348.32   18.07
  -8   2   2  378.55   13.58
   8   2  -2  383.28   14.21
   8   2  -2  364.14   13.18
   8   2  -2  386.63   14.13
  -8   2   2  372.19   18.55
   8   2  -2  387.67   18.67
   8   2  -2  400.22   18.33
  -8   2   2  392.88   13.61
   8   2  -1  346.35   12.60
   8   2  -1  357.43   14.25
  -8   2   1  379.71   12.47
  -8   2   1  327.70   16.83
  -8   2   1  379.57   12.49
   8   2  -1  353.82   12.16
   8   2  -1  364.63   12.69
  -8   2   1  359.00   17.59
   8   2  -1  328.85   16.97
   8   2  -1  366.57   17.04
  -8   2   0  222.66    8.21
   8   2   0  215.36    8.17
  -8   2   0  209.86   12.02
  -8   2   0  221.47    8.22
  -8   2   0  221.39   12.38
   8   2   0  214.93   12.58
   8   2   0  222.78   12.28
  -8   2   0  216.68   13.33
   8   2   0  221.73   10.89
   8   2   1  137.23    5.95
  -8   2  -1  128.55    5.99
  -8   2  -1  129.25    8.38
  -8   2  -1  130.91    9.36
   8   2   1  139.31    5.98
  -8   2  -1  134.86    6.03
  -8   2  -1  141.28    8.67
   8   2   1  152.32    9.94
   8   2   1  128.73    9.13
  -8   2  -1  142.10   10.45
  -8   2  -1  135.48    6.32
   8   2   1  134.07    8.56
  -8   2  -2  873.73   26.69
  -8   2  -2  888.77   28.02
   8   2   2  850.35   25.74
  -8   2  -2  780.78   30.47
  -8   2  -2  848.99   26.65
  -8   2  -2  883.02   31.61
  -8   2  -2  812.13   25.82
  -8   2  -2  838.25   27.58
   8   2   2  865.62   24.57
   8   2   2  914.89   31.25
   8   2   2  852.40   30.85
  -8   2  -2  822.08   32.26
  -8   2  -2  789.07   30.96
   8   2   2  879.39   25.77
   8   2   2  899.92   30.25
  -8   2  -3   44.25    3.39
  -8   2  -3   42.14    5.23
  -8   2  -3   44.39    5.35
  -8   2  -3   42.50    3.56
  -8   2  -3   40.73    3.96
  -8   2  -3   37.83    3.16
  -8   2  -3   44.32    4.10
   8   2   3   46.40    5.25
   8   2   3   42.91    5.12
  -8   2  -3   44.32    5.84
   8   2   3   39.76    3.32
  -8   2  -3   31.83    4.83
   8   2   3   43.93    4.99
  -8   2  -4   21.27    4.20
  -8   2  -4   28.73    4.36
  -8   2  -4   35.53    3.23
  -8   2  -4   24.70    4.03
  -8   2  -4   28.45    3.18
   8   2   4   29.74    4.20
  -8   2  -4   32.18    3.81
  -8   2  -4   32.32    2.93
  -8   2  -4   36.72    5.39
   8   2   4   28.45    4.12
  -8   2  -4   28.03    2.69
  -8   2  -5  374.81   14.09
  -8   2  -5  337.94   16.44
  -8   2  -5  366.33   13.10
  -8   2  -5  366.91   16.84
   8   2   5  365.19   14.11
   8   2   5  358.31   15.50
   8   2   5  375.65   16.31
  -8   2  -5  374.66   13.68
  -8   2  -5  367.48   15.70
  -8   2  -5  343.83   17.07
   8   2   5  389.92   16.84
  -8   2  -5  328.69   17.60
  -8   2  -6   81.99    6.04
   8   2   6   83.39    5.63
  -8   2  -6   80.46    4.69
   8   2   6   93.02    5.93
   8   2   6   75.32    6.03
  -8   2  -6   89.21    5.73
  -8   2  -6   81.02    6.78
  -8   2  -6   78.95    7.75
  -8   2  -7   34.39    4.68
  -8   2  -7   34.63    4.22
  -8   2  -7   32.01    3.62
   8   2   7   34.97    3.74
   8   2   7   33.53    3.58
  -8   2  -7   31.25    3.80
   8   2   7   35.20    3.87
  -8   2  -7   35.13    3.95
  -8   2  -7   29.52    4.80
  -8   2  -8  224.88   12.38
   8   2   8  212.11   10.40
   8   2   8  235.14   10.43
   8   2   8  217.90   10.23
  -8   2  -8  204.02   10.76
  -8   2  -8  213.81   13.03
  -8   4   7   28.88    3.06
   8   4  -7   27.55    4.59
  -8   4   7   29.00    4.45
  -8   4   6  207.42   10.14
  -8   4   6  184.11    9.11
  -8   4   6  195.50   11.93
   8   4  -6  216.39   11.96
  -8   4   5  105.22    6.75
  -8   4   5  126.21    7.35
   8   4  -5  111.59    6.93
  -8   4   5  124.22    9.29
   8   4  -5  123.18    8.58
   8   4  -5  135.47    8.65
   8   4  -5  127.19   10.13
  -8   4   5  123.68    7.08
  -8   4   4   59.10    5.13
  -8   4   4   74.71    5.37
   8   4  -4   52.44    4.57
   8   4  -4   67.44    6.01
  -8   4   4   57.69    6.37
   8   4  -4   72.61    7.45
   8   4  -4   66.39    6.38
   8   4  -4   55.22    5.53
  -8   4   4   72.55    5.18
  -8   4   3  148.07    7.73
  -8   4   3  128.35    8.13
  -8   4   3  139.83    7.66
   8   4  -3  147.82    9.53
   8   4  -3  142.44    8.78
   8   4  -3  124.72    7.26
   8   4  -3  151.91    8.83
  -8   4   3  124.02    9.46
   8   4  -3  140.36   10.42
   8   4  -2  327.97   13.80
  -8   4   2  363.38   13.86
   8   4  -2  344.85   14.79
  -8   4   2  312.08   14.77
  -8   4   2  357.61   13.93
  -8   4   2  323.32   14.73
  -8   4   2  328.78   16.14
   8   4  -2  361.18   17.54
   8   4  -2  363.50   14.78
   8   4  -2  353.43   15.69
   8   4  -1  341.94   14.19
   8   4  -1  340.06   14.12
  -8   4   1  351.07   13.57
  -8   4   1  303.74   14.78
  -8   4   1  333.55   15.76
  -8   4   1  338.14   15.70
   8   4  -1  357.05   14.22
   8   4  -1  354.77   17.20
   8   4  -1  313.26   14.53
   8   4   0   61.14    5.22
  -8   4   0   64.43    4.89
   8   4   0   62.46    4.80
  -8   4   0   54.49    5.65
  -8   4   0   74.95    7.13
  -8   4   0   66.19    5.88
   8   4   0   61.94    5.14
   8   4   0   52.55    6.10
  -8   4   0   60.69    5.08
   8   4   0   60.93    4.92
   8   4   0   52.67    5.26
  -8   4   0   64.29    6.10
  -8   4  -1  258.18   11.92
   8   4   1  247.02   12.12
   8   4   1  258.74   11.01
  -8   4  -1  290.50   13.22
  -8   4  -1  272.64   12.05
  -8   4  -1  263.96   14.78
  -8   4  -1  236.78   11.78
   8   4   1  251.09   11.03
   8   4   1  261.49   12.48
  -8   4  -1  238.10   12.85
   8   4   2  516.66   19.92
   8   4   2  501.49   17.86
  -8   4  -2  510.63   19.37
  -8   4  -2  533.46   19.90
   8   4   2  494.62   17.91
   8   4   2  518.60   17.35
  -8   4  -2  469.54   18.04
  -8   4  -2  521.22   19.27
   8   4   2  520.85   19.62
  -8   4  -2  468.79   20.35
   8   4   3   59.57    4.55
   8   4   3   60.55    4.68
  -8   4  -3   72.30    5.85
  -8   4  -3   68.00    5.91
  -8   4  -3   59.31    5.34
  -8   4  -3   56.05    4.99
   8   4   3   60.11    3.74
  -8   4  -3   64.57    4.46
  -8   4  -3   54.30    5.79
   8   4   4  198.13    9.41
   8   4   4  210.73    9.81
   8   4   4  216.73    7.70
  -8   4  -4  221.58   10.86
  -8   4  -4  210.74   10.61
  -8   4  -4  219.36   11.49
  -8   4  -4  211.61    8.12
  -8   4  -4  223.22   11.42
  -8   4  -4  194.67   11.72
   8   4   5  224.51   10.09
  -8   4  -5  236.63   11.17
  -8   4  -5  204.78   10.62
  -8   4  -5  213.72   11.42
  -8   4  -5  224.36   11.78
   8   4   5  217.26   11.93
  -8   4  -5  195.32   11.89
   8   4   5  208.61    9.66
   8   4   6   95.98    6.10
   8   4   6   93.34    4.98
  -8   4  -6   96.06    7.41
  -8   4  -6   98.10    7.65
   8   4   6   96.96    7.42
   8   4   7   46.58    3.61
   8   4   7   43.90    4.05
  -8   4  -7   47.43    5.42
  -8   4  -7   37.03    5.38
   8   6  -4   56.78    5.78
  -8   6   4   63.39    5.01
  -8   6   4   47.37    4.10
  -8   6   4   53.32    5.69
   8   6  -4   66.71    6.80
   8   6  -3   43.04    4.91
  -8   6   3   39.65    4.08
  -8   6   3   39.81    4.88
   8   6  -3   46.83    5.78
   8   6  -2  348.81   15.22
  -8   6   2  332.26   13.98
  -8   6   2  327.78   15.13
   8   6  -2  351.90   16.85
   8   6  -1   11.42    2.59
  -8   6   1   15.77    3.00
   8   6  -1   12.56    2.27
   8   6  -1   10.39    3.29
  -8   6   0   12.55    2.62
   8   6   0   15.47    2.92
  -8   6   0   13.67    2.72
   8   6   0   16.08    3.54
   8   6   0   14.38    2.37
   8   6   1  250.67   11.08
  -8   6  -1  215.44   11.02
   8   6   1  239.21   13.09
   8   6   1  262.25   10.68
  -8   6  -1  244.45   12.06
  -8   6  -2   33.37    4.20
   8   6   2   33.13    3.64
   8   6   2   33.52    3.38
  -8   6  -2   30.63    3.57
   8   6   2   31.46    4.40
  -8   6  -2   31.51    3.70
  -8   6  -3   39.12    4.71
   8   6   3   35.26    3.70
   8   6   3   32.52    3.03
  -8   6  -3   32.47    3.38
   8   6   3   32.67    4.47
  -8   6  -3   27.37    3.57
  -8   6  -4  110.70    7.92
   8   6   4  111.88    6.71
   8   6   4  104.54    7.90
  -8   6  -4  108.77    7.22
  -9  -5   5   11.89    2.99
   9  -5  -5   10.17    2.97
   9  -5  -5   13.06    2.58
   9  -5  -5   10.59    2.59
  -9  -5   4  202.14   11.85
   9  -5  -4  227.90    9.85
   9  -5  -4  179.23   11.01
   9  -5  -4  205.52    8.16
   9  -5  -4  218.25    9.46
   9  -5  -4  192.41   10.33
  -9  -5   3   55.30    6.02
   9  -5  -3   52.96    4.62
   9  -5  -3   52.56    5.49
  -9  -5   3   62.59    5.21
   9  -5  -3   48.69    2.82
   9  -5  -3   55.88    4.03
   9  -5  -3   51.20    4.33
  -9  -5   2  146.89    9.91
   9  -5  -2  144.85    9.39
   9  -5  -2  144.62    7.88
  -9  -5   2  151.60    8.43
   9  -5  -2  148.56    6.54
   9  -5  -2  154.20    7.81
   9  -5  -2  137.47    6.16
  -9  -5   1  204.23   11.95
   9  -5  -1  186.31    7.13
   9  -5  -1  214.09   10.57
   9  -5  -1  197.97   11.00
  -9  -5   1  223.37   10.60
   9  -5  -1  208.51    9.70
   9  -5  -1  216.32    9.61
   9  -5   0   68.05    5.12
  -9  -5   0   71.89    5.42
   9  -5   0   73.04    5.31
   9  -5   0   75.12    6.23
   9  -5   0   72.90    5.13
  -9  -5   0   77.28    7.05
   9  -5   1  157.39    7.50
   9  -5   1  158.95    8.54
   9  -5   1  156.98    9.02
  -9  -5  -1  155.58    8.41
  -9  -5  -1  154.82   10.32
   9  -5   2   29.83    2.66
   9  -5   2   30.30    3.57
  -9  -5  -2   28.89    3.48
  -9  -5  -2   32.58    4.83
   9  -5   3   32.30    3.67
  -9  -5  -3   26.00    3.80
  -9  -5  -3   35.48    4.15
  -9  -5  -4  221.45   11.38
  -9  -5  -4  228.42   11.63
  -9  -5  -5    4.71    1.97
  -9  -5  -5    7.07    2.27
   9  -3  -7   26.86    3.43
  -9  -3   7   21.33    3.84
  -9  -3   7   28.44    3.17
  -9  -3   7   26.41    3.93
   9  -3  -7   21.55    3.83
   9  -3  -6  172.66    8.92
   9  -3  -6  154.05   10.08
  -9  -3   6  188.48    8.59
   9  -3  -6  169.31    9.34
   9  -3  -6  181.59    9.97
  -9  -3   6  180.88   10.45
   9  -3  -5  121.08    7.08
   9  -3  -5  123.07    8.61
  -9  -3   5  127.94    6.60
   9  -3  -5  117.69    7.37
   9  -3  -5  124.11    7.63
  -9  -3   5  124.41    8.67
  -9  -3   4   92.21    7.96
   9  -3  -4   78.04    5.54
   9  -3  -4   94.09    7.40
  -9  -3   4  102.87    5.31
   9  -3  -4   86.78    5.80
   9  -3  -4   88.97    7.06
   9  -3  -4   94.06    6.21
  -9  -3   3  304.51   16.10
   9  -3  -3  328.05   16.09
  -9  -3   3  300.97   15.16
  -9  -3   3  320.94   10.85
   9  -3  -3  292.32   14.42
   9  -3  -3  315.58   14.39
  -9  -3   2   60.09    6.60
   9  -3  -2   49.57    2.58
   9  -3  -2   60.54    6.23
  -9  -3   2   61.86    6.15
  -9  -3   2   70.18    2.95
   9  -3  -2   60.42    5.71
   9  -3  -2   57.19    5.38
  -9  -3   1   46.71    5.40
   9  -3  -1   54.83    5.40
   9  -3  -1   44.55    4.79
  -9  -3   1   59.82    4.32
   9  -3  -1   55.62    3.03
   9  -3  -1   55.45    4.01
   9  -3  -1   46.78    4.95
   9  -3   0  706.15   23.77
   9  -3   0  638.34   23.61
   9  -3   0  654.39   21.45
  -9  -3   0  660.87   21.75
   9  -3   0  684.97   24.60
  -9  -3   0  661.19   25.12
  -9  -3  -1   34.90    4.53
   9  -3   1   29.44    3.64
  -9  -3  -1   35.81    4.10
   9  -3   1   31.44    3.10
  -9  -3  -1   30.01    3.07
   9  -3   1   32.94    4.11
  -9  -3  -1   25.24    4.30
  -9  -3  -2   48.83    3.98
  -9  -3  -2   62.80    5.15
   9  -3   2   55.12    4.57
  -9  -3  -2   51.07    5.81
   9  -3   2   51.23    5.15
  -9  -3  -2   61.32    6.46
  -9  -3  -3  480.83   17.60
  -9  -3  -3  476.59   18.13
  -9  -3  -3  484.47   21.27
  -9  -3  -4   33.96    3.80
  -9  -3  -4   38.05    3.83
  -9  -3  -4   37.60    3.77
  -9  -3  -4   33.53    4.92
  -9  -3  -5  112.06    6.98
  -9  -3  -5  114.65    6.70
  -9  -3  -5  108.05    7.20
  -9  -3  -5  105.81    8.65
  -9  -3  -6   90.38    6.31
  -9  -3  -6   75.89    7.27
  -9  -3  -6   86.87    6.63
  -9  -3  -7   13.67    2.92
  -9  -3  -7   14.90    3.54
   9  -1  -8   59.79    5.18
  -9  -1   8   80.02    6.01
   9  -1  -7  216.50   10.54
   9  -1  -7  232.43   13.07
   9  -1  -7  211.24   10.10
  -9  -1   7  253.68   11.69
   9  -1  -7  238.33    9.37
   9  -1  -6   89.31    6.00
   9  -1  -6  100.77    7.84
  -9  -1   6  101.58    8.44
   9  -1  -6  108.32    6.11
  -9  -1   6   96.84    7.14
  -9  -1   5   14.61    3.53
   9  -1  -5   16.66    3.24
   9  -1  -5   16.12    2.73
  -9  -1   5   13.54    2.98
   9  -1  -4  504.10   18.99
   9  -1  -4  585.60   23.88
  -9  -1   4  519.19   22.55
   9  -1  -4  502.32   17.09
   9  -1  -4  528.04   19.52
  -9  -1   4  523.59   19.83
   9  -1  -4  492.32   17.03
   9  -1  -4  533.04   21.98
   9  -1  -3  217.40    8.52
   9  -1  -3  243.01   13.93
  -9  -1   3  239.31   13.84
   9  -1  -3  244.95   12.18
   9  -1  -3  228.98   11.73
   9  -1  -3  221.73    8.69
  -9  -1   3  222.80   11.04
   9  -1  -3  237.22   13.16
   9  -1  -3  218.09    9.63
  -9  -1   2  493.31   21.92
   9  -1  -2  509.38   19.32
   9  -1  -2  487.50   20.05
   9  -1  -2  470.43   14.10
  -9  -1   2  507.17   18.67
   9  -1  -2  528.90   19.37
   9  -1  -2  534.91   21.42
  -9  -1   1  438.22   19.97
  -9  -1   1  414.71   16.42
   9  -1  -1  424.88   16.56
   9  -1  -1  421.84   18.57
   9  -1  -1  414.42   16.36
   9  -1  -1  438.58   18.79
  -9  -1   0  551.20   23.79
  -9  -1   0  586.99   20.65
   9  -1   0  568.05   23.22
   9  -1   0  594.68   20.20
  -9  -1  -1  621.74   22.55
  -9  -1  -1  571.10   24.10
  -9  -1  -1  650.41   20.97
   9  -1   1  599.59   19.94
   9  -1   1  578.25   24.03
   9  -1   1  592.73   20.16
  -9  -1  -1  590.55   20.92
  -9  -1  -2   31.28    4.18
  -9  -1  -2   30.61    4.57
  -9  -1  -2   29.44    3.29
   9  -1   2   27.66    4.37
   9  -1   2   28.01    2.57
   9  -1   2   29.47    2.98
  -9  -1  -2   27.12    4.09
  -9  -1  -3  301.85   15.12
  -9  -1  -3  294.81   10.35
  -9  -1  -3  290.19   12.45
   9  -1   3  283.47   14.77
  -9  -1  -3  318.48   12.01
   9  -1   3  295.07   11.48
  -9  -1  -3  281.18   14.05
  -9  -1  -3  286.93   10.39
  -9  -1  -4  600.04   25.02
  -9  -1  -4  596.47   20.26
  -9  -1  -4  608.35   23.18
  -9  -1  -4  618.50   21.94
  -9  -1  -4  673.38   20.27
  -9  -1  -4  616.02   23.75
  -9  -1  -4  626.77   20.20
  -9  -1  -5   56.66    6.35
  -9  -1  -5   57.98    4.69
  -9  -1  -5   62.28    5.58
  -9  -1  -5   67.74    5.39
  -9  -1  -5   69.53    4.08
  -9  -1  -5   58.96    5.78
  -9  -1  -6   67.35    6.86
  -9  -1  -6   66.40    5.52
  -9  -1  -6   62.81    5.35
  -9  -1  -6   61.31    3.30
  -9  -1  -7  279.63   15.12
  -9  -1  -7  274.21   12.73
  -9  -1  -7  284.28   12.51
  -9  -1  -7  289.57   13.15
  -9  -1  -7  285.09   12.79
  -9  -1  -8   94.39    8.01
  -9  -1  -8   78.59    6.22
  -9   1   8   72.99    7.31
  -9   1   8   81.30    5.78
   9   1  -8   66.83    5.34
  -9   1   7  255.42   14.11
   9   1  -7  227.30   10.51
  -9   1   7  274.24   11.50
  -9   1   7  235.38   13.71
   9   1  -7  237.10   12.15
   9   1  -7  233.00   10.97
   9   1  -6  101.96    8.17
  -9   1   6  111.49    9.13
   9   1  -6   96.27    5.92
  -9   1   6   99.65    6.35
   9   1  -6  105.62    7.24
   9   1  -6   92.86    6.13
  -9   1   5   12.60    3.37
   9   1  -5   11.52    3.02
   9   1  -5   13.27    2.78
  -9   1   5   11.09    2.05
  -9   1   4  525.45   23.02
   9   1  -4  493.87   17.06
  -9   1   4  510.44   17.34
   9   1  -4  539.25   18.35
   9   1  -4  558.81   20.80
   9   1  -4  560.56   22.82
   9   1  -4  490.42   17.22
  -9   1   3  207.03   13.06
   9   1  -3  210.39    8.08
  -9   1   3  228.11    8.30
   9   1  -3  212.45    8.71
   9   1  -3  237.32   13.35
   9   1  -3  241.86   13.42
   9   1  -3  212.54    8.24
  -9   1   2  494.57   14.82
   9   1  -2  469.77   13.32
   9   1  -2  457.56   13.44
  -9   1   2  450.83   20.66
   9   1  -2  462.89   13.27
   9   1  -2  451.38   13.45
   9   1  -2  488.55   20.70
   9   1  -2  493.86   20.96
  -9   1   1  398.82   14.74
  -9   1   1  389.55   18.20
   9   1  -1  383.32   17.58
   9   1  -1  401.92   18.18
  -9   1   0  571.23   23.02
   9   1   0  577.63   22.72
   9   1   0  629.45   23.85
   9   1   0  599.01   24.05
  -9   1   0  602.65   25.68
  -9   1   0  555.39   21.13
  -9   1  -1  615.25   23.07
   9   1   1  645.99   23.50
   9   1   1  644.34   24.73
  -9   1  -1  614.86   26.06
  -9   1  -1  554.59   22.76
  -9   1  -2   40.00    4.27
  -9   1  -2   36.20    4.76
  -9   1  -2   41.56    4.85
  -9   1  -2   40.69    4.20
   9   1   2   34.40    4.52
   9   1   2   36.24    4.34
   9   1   2   36.41    4.82
  -9   1  -2   36.28    5.52
  -9   1  -2   40.83    5.04
  -9   1  -3  310.38   10.78
  -9   1  -3  305.77   12.71
  -9   1  -3  303.07   15.01
  -9   1  -3  308.20   10.62
  -9   1  -3  310.04   14.82
   9   1   3  312.08   10.40
  -9   1  -3  318.51   12.11
  -9   1  -3  314.63   10.97
  -9   1  -3  326.42   11.05
   9   1   3  327.00   14.42
   9   1   3  324.44   15.69
  -9   1  -3  297.45   16.50
  -9   1  -3  296.73   15.52
  -9   1  -4  631.24   21.19
  -9   1  -4  670.41   21.29
  -9   1  -4  664.94   20.50
  -9   1  -4  593.45   24.47
  -9   1  -4  622.53   20.84
  -9   1  -4  664.54   24.79
   9   1   4  639.40   20.51
  -9   1  -4  692.28   19.23
   9   1   4  660.98   24.74
  -9   1  -4  693.79   18.92
   9   1   4  689.50   24.03
  -9   1  -4  638.83   21.60
  -9   1  -4  680.78   22.66
  -9   1  -4  613.80   26.83
  -9   1  -4  639.34   26.29
  -9   1  -5   56.34    6.39
  -9   1  -5   73.94    5.46
  -9   1  -5   73.00    3.94
  -9   1  -5   72.98    6.50
  -9   1  -5   65.21    4.63
  -9   1  -5   72.24    6.31
   9   1   5   67.10    4.47
   9   1   5   65.17    5.96
   9   1   5   72.75    5.75
  -9   1  -5   68.40    5.28
  -9   1  -5   64.16    7.25
  -9   1  -5   70.98    5.10
  -9   1  -6   58.79    4.82
  -9   1  -6   55.81    6.41
  -9   1  -6   55.71    5.14
  -9   1  -6   56.63    4.50
   9   1   6   57.18    4.26
   9   1   6   58.13    5.35
  -9   1  -6   61.54    5.30
  -9   1  -6   63.23    5.15
  -9   1  -7  263.10   12.06
  -9   1  -7  277.38   15.00
  -9   1  -7  259.04   11.56
   9   1   7  281.20   11.37
   9   1   7  283.09   12.71
  -9   1  -7  279.96   13.05
  -9   1  -7  266.84   12.61
  -9   1  -8   82.75    7.62
   9   1   8   76.89    5.23
   9   3  -7   22.78    3.92
  -9   3   7   24.77    3.24
  -9   3   7   21.28    4.05
   9   3  -6  153.64    5.46
   9   3  -6  163.84    8.28
  -9   3   6  173.80   11.05
  -9   3   5  138.51    5.04
   9   3  -5  122.15    5.24
   9   3  -5  128.60    7.00
  -9   3   5  129.93    9.71
   9   3  -5  132.35    8.24
   9   3  -4   90.54    4.72
  -9   3   4  102.64    6.01
   9   3  -4   98.80    6.59
   9   3  -4   81.15    5.36
   9   3  -4  105.22    6.86
  -9   3   4   89.14    7.97
  -9   3   4  101.53    5.90
   9   3  -3  298.96   11.71
  -9   3   3  340.13   12.67
   9   3  -3  313.18   13.23
   9   3  -3  342.41   13.42
  -9   3   3  334.66   16.39
   9   3  -3  338.18   15.98
  -9   3   3  315.94   12.30
   9   3  -2   69.76    4.79
   9   3  -2   67.93    4.84
  -9   3   2   70.21    6.02
  -9   3   2   70.33    4.57
  -9   3   2   64.34    6.60
   9   3  -2   67.46    4.84
   9   3  -2   77.65    6.88
  -9   3   2   74.95    4.61
   9   3  -1   59.34    4.73
  -9   3   1   65.99    4.16
   9   3  -1   61.25    4.12
  -9   3   1   57.76    5.70
  -9   3   1   66.90    4.19
  -9   3   1   57.34    5.96
   9   3  -1   55.74    6.20
   9   3  -1   67.05    6.07
   9   3  -1   66.56    4.38
   9   3   0  669.92   23.78
  -9   3   0  712.07   21.62
   9   3   0  730.60   21.68
  -9   3   0  661.10   25.03
   9   3   0  724.78   27.18
   9   3   0  723.04   26.11
  -9   3   0  663.97   26.76
   9   3   1   24.98    3.41
   9   3   1   24.75    2.44
  -9   3  -1   25.01    2.60
   9   3   1   27.65    2.59
  -9   3  -1   26.51    2.65
  -9   3  -1   24.52    3.41
   9   3   1   24.80    2.72
   9   3   1   23.18    3.99
  -9   3  -1   25.91    2.72
   9   3   1   20.33    3.46
  -9   3  -1   30.51    4.61
   9   3   2   55.94    3.82
  -9   3  -2   57.39    4.43
   9   3   2   62.78    4.01
  -9   3  -2   49.42    3.82
  -9   3  -2   54.97    4.54
   9   3   2   60.19    3.59
  -9   3  -2   57.32    4.35
   9   3   2   58.18    6.00
   9   3   2   57.57    5.65
  -9   3  -2   62.00    6.52
   9   3   2   61.66    5.41
   9   3   3  500.04   16.78
  -9   3  -3  513.02   18.07
  -9   3  -3  513.26   18.26
   9   3   3  493.49   14.15
  -9   3  -3  453.42   16.91
  -9   3  -3  517.77   16.67
   9   3   3  517.37   20.81
  -9   3  -3  493.71   21.58
   9   3   3  503.13   16.70
   9   3   3  509.08   19.77
   9   3   4   34.83    3.21
  -9   3  -4   43.14    3.99
  -9   3  -4   33.72    3.93
  -9   3  -4   33.15    3.33
   9   3   4   36.35    4.59
  -9   3  -4   35.41    5.09
  -9   3  -4   30.66    3.69
   9   3   4   30.87    2.99
  -9   3  -4   34.22    4.90
  -9   3  -5  129.45    6.83
  -9   3  -5  100.95    6.28
  -9   3  -5  109.09    7.31
   9   3   5  116.23    8.12
  -9   3  -5  112.55    7.25
  -9   3  -5  105.79    8.71
   9   3   6  101.79    5.97
   9   3   6   97.15    6.62
   9   3   6  101.87    7.34
  -9   3  -6   96.05    7.09
  -9   3  -6   95.37    8.41
  -9   3  -6   83.64    7.95
  -9   3  -7   10.51    3.31
  -9   3  -7   17.32    3.47
   9   3   7   15.43    2.41
   9   3   7   13.21    2.63
   9   5  -5   15.85    3.28
  -9   5   5   14.84    2.47
  -9   5   5   10.49    3.07
   9   5  -5    7.90    3.17
  -9   5   4  259.36   11.26
   9   5  -4  257.41   12.54
  -9   5   4  245.62   13.33
   9   5  -4  276.82   14.83
  -9   5   3   80.75    5.33
   9   5  -3   71.86    5.28
   9   5  -3   77.55    6.12
  -9   5   3   72.27    5.21
   9   5  -3   64.01    4.92
  -9   5   3   70.01    6.51
   9   5  -3   82.68    7.52
   9   5  -3   82.73    6.06
   9   5  -2  158.99    8.56
  -9   5   2  176.77    8.40
   9   5  -2  168.82    9.17
  -9   5   2  177.31    8.60
  -9   5   2  152.70    9.76
   9   5  -2  173.55    9.05
   9   5  -2  155.58   10.75
   9   5  -2  172.40    9.32
   9   5  -1  241.21   11.13
  -9   5   1  244.57   10.49
   9   5  -1  240.61   10.59
  -9   5   1  214.97   11.64
   9   5  -1  239.13   11.33
   9   5  -1  243.97   13.48
   9   5  -1  243.37   11.52
   9   5  -1  236.86   10.95
  -9   5   0   92.61    5.91
   9   5   0   85.83    5.59
  -9   5   0   78.64    6.27
   9   5   0   97.04    6.25
   9   5   0   95.32    7.86
   9   5   0   97.51    6.53
   9   5   1  182.81    8.56
  -9   5  -1  185.42    8.98
  -9   5  -1  169.59    9.11
   9   5   1  185.38    8.78
   9   5   1  183.99   11.09
   9   5   1  181.98    9.41
  -9   5  -1  191.88    9.55
  -9   5  -1  176.21   10.05
  -9   5  -2   33.76    3.99
   9   5   2   38.66    3.49
   9   5   2   39.48    3.62
   9   5   2   37.86    3.28
  -9   5  -2   35.20    4.01
   9   5   3   38.82    3.49
  -9   5  -3   42.29    4.49
   9   5   3   40.75    3.67
   9   5   3   40.57    3.03
  -9   5  -3   42.29    3.63
  -9   5  -3   37.41    4.57
  -9   5  -4  286.03   13.27
   9   5   4  264.06   11.29
   9   5   4  275.09    9.44
  -9   5  -4  280.49   13.59
  -9   5  -5    6.30    2.38
   9   5   5    5.08    1.57
  -9   5  -5    6.93    2.52
  10  -4  -5  168.99    8.62
  10  -4  -5  175.09    9.08
  10  -4  -5  178.54   10.53
  10  -4  -5  184.23    8.44
 -10  -4   5  195.68   10.73
  10  -4  -5  195.11    8.91
 -10  -4   4  143.46    9.73
 -10  -4   4  142.87    9.24
  10  -4  -4  124.88    6.94
  10  -4  -4  134.47    8.74
  10  -4  -4  136.57    6.42
  10  -4  -4  116.19    7.13
  10  -4  -4  133.13    6.54
 -10  -4   3   16.07    3.68
 -10  -4   3   18.76    3.81
  10  -4  -3   20.67    2.67
  10  -4  -3   21.22    2.86
  10  -4  -3   17.36    3.32
 -10  -4   2  108.83    8.88
  10  -4  -2  135.62    8.51
 -10  -4   2  128.26    8.68
  10  -4  -2  120.81    8.14
  10  -4  -2  120.16    6.34
  10  -4  -2  107.84    4.32
  10  -4  -2  132.34    7.80
 -10  -4   1  143.15    9.61
  10  -4  -1  157.14    8.93
  10  -4  -1  165.15    9.48
 -10  -4   1  160.79    7.98
  10  -4  -1  159.21    8.81
 -10  -4   0   99.57    7.76
  10  -4   0   95.67    6.31
  10  -4   0   99.85    6.93
  10  -4   0   95.70    5.75
 -10  -4   0   99.71    5.98
  10  -4   0  102.86    6.81
  10  -4   1   46.51    3.87
  10  -4   1   48.32    3.91
  10  -4   1   49.34    4.55
  10  -4   1   50.80    4.72
 -10  -4  -1   55.02    5.64
 -10  -4  -1   49.68    3.99
  10  -4   2  153.26    8.18
 -10  -4  -2  156.86    9.97
 -10  -4  -2  162.51   10.08
 -10  -4  -3  245.41   10.95
 -10  -4  -3  254.82   13.24
 -10  -4  -4   37.33    3.96
 -10  -4  -4   38.85    4.83
 -10  -4  -5   73.74    5.71
 -10  -4  -5   73.69    6.72
  10  -2  -7   12.98    2.38
  10  -2  -7    7.99    2.79
 -10  -2   7    9.20    2.19
  10  -2  -7    6.69    2.37
 -10  -2   7    6.77    2.40
  10  -2  -6   14.58    2.33
 -10  -2   6   11.49    3.24
  10  -2  -6   13.05    3.02
  10  -2  -6   13.73    2.29
 -10  -2   6   17.00    2.76
  10  -2  -6   20.03    3.50
 -10  -2   6   16.82    3.09
  10  -2  -5  260.23   10.89
  10  -2  -5  285.36   12.14
 -10  -2   5  271.79   14.52
  10  -2  -5  273.86   13.59
  10  -2  -5  254.62   11.18
 -10  -2   5  282.37   13.02
  10  -2  -4   61.50    4.38
 -10  -2   4   60.56    6.42
  10  -2  -4   53.21    5.44
 -10  -2   4   69.56    4.76
 -10  -2   4   57.36    5.38
  10  -2  -3   19.61    4.02
 -10  -2   3   18.23    3.87
  10  -2  -3   18.09    1.99
  10  -2  -3   18.27    3.10
 -10  -2   3   15.90    3.18
  10  -2  -3   17.81    1.84
  10  -2  -2  353.01   15.86
 -10  -2   2  314.73   16.27
 -10  -2   2  343.10   14.56
  10  -2  -2  308.44   13.83
  10  -2  -2  297.36   10.13
  10  -2  -2  329.30   12.69
  10  -2  -2  321.92   14.87
 -10  -2   1  218.93   13.12
 -10  -2   1  210.41   10.91
  10  -2  -1  203.07   10.35
  10  -2  -1  226.41    9.17
  10  -2  -1  225.03   12.17
 -10  -2   0  301.64   13.64
 -10  -2   0  301.23   15.82
 -10  -2   0  326.35   10.90
  10  -2   0  301.77   12.71
  10  -2   0  293.21   10.75
  10  -2   0  297.88   14.56
 -10  -2   0  286.36   15.83
 -10  -2  -1  134.85    9.93
 -10  -2  -1  150.05    6.32
  10  -2   1  132.40    7.29
  10  -2   1  135.46    5.72
  10  -2   1  141.31    9.18
 -10  -2  -1  136.13   10.25
 -10  -2  -1  135.46    8.24
 -10  -2  -2  187.49    7.68
  10  -2   2  188.38   10.90
 -10  -2  -2  180.52    6.44
 -10  -2  -2  176.13    9.61
 -10  -2  -2  170.59   11.56
 -10  -2  -3  425.63   14.39
 -10  -2  -3  452.34   15.25
 -10  -2  -3  422.58   14.16
 -10  -2  -3  483.01   16.48
 -10  -2  -3  420.96   18.53
 -10  -2  -3  450.08   20.56
 -10  -2  -4    8.61    1.71
 -10  -2  -4   10.25    1.87
 -10  -2  -4    7.81    1.91
 -10  -2  -4    8.70    1.78
 -10  -2  -4    6.33    2.62
 -10  -2  -5   50.00    4.78
 -10  -2  -5   56.65    4.33
 -10  -2  -5   45.36    4.02
 -10  -2  -5   44.62    5.84
 -10  -2  -6  360.86   17.36
 -10  -2  -6  360.36   14.57
 -10  -2  -6  357.42   18.05
 -10  -2  -7   39.27    5.18
 -10  -2  -7   45.66    4.44
 -10  -2  -7   39.17    5.59
  10   0  -8    2.21    1.51
 -10   0   8    3.80    2.47
  10   0  -8    4.20    1.48
 -10   0   8    4.40    1.83
  10   0  -7  145.28    7.70
 -10   0   7  160.41   10.57
  10   0  -7  134.34    7.15
  10   0  -7  154.39    7.48
  10   0  -7  158.31    8.79
  10   0  -6   78.08    6.45
  10   0  -6   57.42    4.36
 -10   0   6   69.68    6.96
  10   0  -6   63.66    4.34
  10   0  -6   71.72    5.13
  10   0  -6   77.36    5.66
 -10   0   5   18.90    4.00
  10   0  -5   21.37    3.31
  10   0  -5   19.53    2.99
  10   0  -5   22.76    2.93
  10   0  -4  483.12   16.01
  10   0  -4  466.77   15.12
 -10   0   4  499.17   21.62
  10   0  -4  489.70   18.85
  10   0  -4  499.28   18.09
 -10   0   3   41.92    5.63
  10   0  -3   38.02    4.57
  10   0  -3   38.85    2.01
  10   0  -3   38.74    1.99
  10   0  -3   45.77    5.25
 -10   0   2    3.07    2.23
  10   0  -2    1.65    1.94
  10   0  -2    2.64    2.03
 -10   0   2    1.59    1.27
  10   0  -2    4.39    2.54
 -10   0   1  374.76   17.77
  10   0  -1  410.08   15.12
  10   0  -1  366.32   17.03
  10   0  -1  376.07   16.02
 -10   0   1  375.63   12.45
  10   0  -1  391.09   17.42
 -10   0   0    3.58    1.56
 -10   0   0    1.86    2.48
  10   0   0    3.34    2.30
  10   0   0    2.87    1.58
 -10   0   0    4.33    0.97
  10   0   0    6.39    2.42
 -10   0   0    2.41    2.24
 -10   0  -1   46.45    4.70
 -10   0  -1   48.44    5.38
 -10   0  -1   48.00    4.65
  10   0   1   47.57    3.25
  10   0   1   49.82    5.59
 -10   0  -1   44.00    2.24
  10   0   1   46.34    4.38
  10   0   1   44.48    5.30
 -10   0  -1   50.29    6.30
 -10   0  -2  343.78   15.84
 -10   0  -2  341.30   11.13
 -10   0  -2  342.44   15.51
 -10   0  -2  369.19   15.13
  10   0   2  346.84   16.32
  10   0   2  347.92   10.66
  10   0   2  366.35   14.38
 -10   0  -2  357.85   10.96
  10   0   2  349.94   16.61
 -10   0  -2  336.82   17.81
 -10   0  -3   67.31    6.51
 -10   0  -3   70.96    5.87
 -10   0  -3   61.23    5.98
 -10   0  -3   75.44    5.96
  10   0   3   62.16    6.17
  10   0   3   69.21    5.17
 -10   0  -3   70.07    3.82
 -10   0  -3   67.07    5.56
  10   0   3   68.39    6.43
 -10   0  -3   65.82    3.92
 -10   0  -3   64.17    7.12
 -10   0  -4  210.18   12.59
 -10   0  -4  219.66   10.84
 -10   0  -4  237.50    8.57
 -10   0  -4  232.92   12.23
 -10   0  -4  226.49   11.35
 -10   0  -4  251.52    8.82
  10   0   4  231.19   10.46
 -10   0  -4  248.53    9.40
 -10   0  -4  221.30   11.21
 -10   0  -4  225.61    8.36
 -10   0  -4  217.60   13.71
 -10   0  -4  228.33    8.64
 -10   0  -5  171.58   11.27
 -10   0  -5  183.05    9.03
 -10   0  -5  186.78   10.02
 -10   0  -5  198.24    6.15
  10   0   5  170.43   10.24
 -10   0  -5  171.09    8.24
 -10   0  -5  188.21    8.50
 -10   0  -5  173.01    9.67
 -10   0  -5  166.41   11.83
 -10   0  -6   24.00    4.15
 -10   0  -6   23.93    2.92
 -10   0  -6   30.02    3.12
  10   0   6   29.36    4.07
 -10   0  -6   27.22    3.79
 -10   0  -6   27.35    4.89
 -10   0  -7  135.38    7.68
 -10   0  -7  126.94   10.63
  10   2  -7   12.01    2.27
 -10   2   7    9.79    3.34
  10   2  -7   12.00    2.11
  10   2  -7   13.42    3.00
 -10   2   7   12.29    2.20
 -10   2   7    9.55    3.09
  10   2  -6   11.85    2.06
 -10   2   6   14.21    3.79
  10   2  -6   13.16    2.03
  10   2  -6   14.17    2.85
 -10   2   6   15.62    2.37
 -10   2   6   15.08    3.82
 -10   2   5  264.88   14.95
  10   2  -5  272.62   10.63
 -10   2   5  266.19   11.09
 -10   2   5  261.75   14.66
  10   2  -5  282.60   11.89
  10   2  -5  311.39   15.80
  10   2  -5  269.90   10.87
 -10   2   4   65.64    6.98
 -10   2   4   70.00    4.49
 -10   2   4   63.99    6.92
  10   2  -4   75.08    4.93
  10   2  -4   73.98    4.91
  10   2  -4   83.20    7.71
 -10   2   3   17.30    3.89
  10   2  -3   17.23    2.06
  10   2  -3   16.89    2.05
 -10   2   3   15.29    1.83
 -10   2   3   16.67    3.83
  10   2  -3   17.43    3.82
 -10   2   2  325.78   16.25
 -10   2   2  317.08   10.23
 -10   2   2  332.91   16.35
  10   2  -2  349.75   16.54
  10   2  -2  322.47   10.45
  10   2  -2  337.38   11.80
 -10   2   2  329.94   12.05
  10   2  -1  230.78    7.02
 -10   2   1  241.55   13.03
  10   2  -1  229.85    6.99
 -10   2   1  279.00   13.86
  10   2  -1  269.21   13.68
  10   2  -1  290.06   13.55
  10   2  -1  253.45   10.31
 -10   2   1  235.01   10.73
 -10   2   0  292.38   14.19
 -10   2   0  311.38   14.63
  10   2   0  332.15   15.37
  10   2   0  310.08   15.19
 -10   2   0  320.69   16.47
  10   2   0  300.57   12.73
 -10   2   0  278.45   13.32
 -10   2  -1  179.92    9.60
 -10   2  -1  163.36    9.25
  10   2   1  156.43    9.83
  10   2   1  165.88   10.34
 -10   2  -1  148.78   10.89
  10   2   1  173.51    9.15
 -10   2  -1  152.09    9.56
 -10   2  -2  221.28    6.88
 -10   2  -2  222.53   10.19
 -10   2  -2  194.94    6.80
  10   2   2  216.15    6.58
 -10   2  -2  218.01   11.92
  10   2   2  200.74    6.96
 -10   2  -2  212.75    9.83
  10   2   2  207.80    6.64
  10   2   2  210.03   11.42
  10   2   2  224.06   12.11
 -10   2  -2  213.27   13.09
 -10   2  -2  192.88    6.84
  10   2   2  231.45   11.22
 -10   2  -2  211.49   11.87
 -10   2  -3  454.19   15.33
 -10   2  -3  444.50   14.19
 -10   2  -3  419.19   13.69
  10   2   3  420.94   13.57
 -10   2  -3  448.38   14.82
  10   2   3  461.32   18.25
  10   2   3  436.88   18.65
 -10   2  -3  439.38   14.14
 -10   2  -3  427.16   20.12
 -10   2  -3  397.55   13.78
  10   2   3  442.85   17.81
 -10   2  -3  389.01   18.68
 -10   2  -4    6.92    2.58
 -10   2  -4    9.72    1.68
 -10   2  -4   11.91    2.07
 -10   2  -4    9.55    1.65
  10   2   4   10.31    1.60
 -10   2  -4   11.99    1.20
  10   2   4   10.90    2.61
 -10   2  -4    9.74    1.96
  10   2   4   13.00    2.83
 -10   2  -4    8.61    3.16
  10   2   5   44.84    3.47
  10   2   5   54.30    5.15
 -10   2  -5   53.13    4.34
  10   2   5   53.66    4.99
 -10   2  -5   44.90    5.88
 -10   2  -5   48.80    3.91
 -10   2  -5   45.48    5.54
  10   2   6  390.80   13.99
  10   2   6  405.37   16.38
  10   2   6  418.99   16.52
 -10   2  -6  417.67   15.72
 -10   2  -6  370.25   18.88
 -10   2  -6  386.28   14.70
 -10   2  -6  362.44   18.00
  10   2   7   43.50    3.59
  10   2   7   40.88    4.30
 -10   2  -7   54.14    4.95
 -10   2  -7   50.83    6.38
 -10   2  -7   39.67    3.89
 -10   2  -7   40.81    5.30
  10   4  -5  199.24    7.99
  10   4  -5  235.56   11.03
  10   4  -5  208.82    9.26
 -10   4   5  197.82   11.88
  10   4  -5  234.32   10.85
  10   4  -4  133.54    6.48
 -10   4   4  165.34    7.63
  10   4  -4  151.07    8.18
  10   4  -4  147.14    8.05
  10   4  -4  133.49    6.93
 -10   4   4  130.27    9.33
  10   4  -3   24.03    2.73
  10   4  -3   28.30    3.29
 -10   4   3   28.62    2.88
  10   4  -3   26.27    2.73
 -10   4   3   25.01    4.12
  10   4  -3   30.32    3.34
  10   4  -2  134.85    7.07
  10   4  -2  137.02    7.12
 -10   4   2  137.50    6.73
  10   4  -2  123.53    6.35
  10   4  -2  128.54    6.88
 -10   4   2  144.03    9.17
  10   4  -1  156.83    8.27
 -10   4   1  173.25    7.57
  10   4  -1  166.36    7.52
 -10   4   1  171.59    7.65
 -10   4   1  160.68    9.75
  10   4  -1  167.89    7.80
  10   4  -1  154.17    9.52
  10   4   0   99.89    6.51
 -10   4   0  102.82    5.47
  10   4   0  103.49    5.39
 -10   4   0   91.78    6.78
  10   4   0  102.53    6.11
  10   4   0   98.87    7.96
  10   4   0   98.42    7.12
  10   4   1   48.43    4.54
  10   4   1   49.68    3.52
  10   4   1   45.17    3.44
 -10   4  -1   44.94    4.31
  10   4   1   44.13    3.62
  10   4   1   49.87    5.51
  10   4   1   46.55    4.79
 -10   4  -1   45.35    5.42
  10   4   2  185.66    7.92
  10   4   2  193.15    8.08
  10   4   2  189.94    7.56
 -10   4  -2  177.62    8.66
  10   4   2  186.38   10.98
  10   4   2  188.74   10.14
 -10   4  -2  179.13   10.95
 -10   4  -2  190.68    8.80
 -10   4  -3  308.77   12.19
  10   4   3  280.01   10.76
  10   4   3  278.49    8.99
  10   4   3  271.05   13.74
 -10   4  -3  272.37   14.19
  10   4   3  277.08   10.62
  10   4   4   50.49    3.71
 -10   4  -4   45.43    4.36
  10   4   4   44.57    5.06
 -10   4  -4   49.88    5.74
  10   4   4   44.17    3.47
 -10   4  -5  100.93    6.63
  10   4   5   94.29    7.08
 -10   4  -5   80.90    7.30
  10   4   5   81.65    4.93
 -10   4  -5   75.96    7.18
 -11  -5   1   56.98    5.73
  11  -5  -1   56.56    4.58
 -11  -5   0   76.64    6.67
  11  -5   0   77.08    4.95
  11  -5   0   69.57    5.56
  11  -5   0   75.06    5.34
  11  -3  -5  205.42    8.85
 -11  -3   5  231.85   12.46
  11  -3  -5  196.51    9.02
  11  -3  -5  207.45    8.84
  11  -3  -5  208.54   11.22
 -11  -3   5  219.06   10.93
  11  -3  -4   14.67    1.73
 -11  -3   4   11.92    3.27
  11  -3  -4   14.84    2.08
  11  -3  -4   10.52    2.69
 -11  -3   4   15.97    3.14
 -11  -3   3    6.00    2.84
  11  -3  -3    4.77    2.10
  11  -3  -3    3.02    1.38
 -11  -3   2  413.33   18.78
 -11  -3   2  423.37   17.01
  11  -3  -2  402.58   16.34
  11  -3  -2  391.66   13.19
  11  -3  -2  412.06   17.08
  11  -3  -2  382.44   12.71
  11  -3  -1    2.48    1.85
 -11  -3   1   -0.35    2.31
 -11  -3   1   -0.25    1.76
  11  -3  -1    1.47    0.95
  11  -3  -1    2.55    1.66
  11  -3  -1    0.36    0.65
  11  -3  -1    0.75    1.53
 -11  -3   0   42.72    4.62
 -11  -3   0   36.41    5.23
  11  -3   0   36.32    3.91
  11  -3   0   45.11    4.76
  11  -3   1  235.75   10.50
  11  -3   1  246.70   12.00
 -11  -3  -1  231.47   13.28
 -11  -3  -1  232.24   11.78
  11  -3   2   34.66    3.27
  11  -3   2   29.49    3.91
 -11  -3  -2   34.27    4.17
 -11  -3  -2   28.38    4.48
 -11  -3  -3   71.60    5.22
 -11  -3  -3   68.72    5.91
 -11  -3  -3   63.44    6.55
 -11  -3  -4  105.38    8.57
 -11  -3  -5    7.50    2.87
  11  -1  -7   29.98    4.08
  11  -1  -7   26.49    2.90
 -11  -1   7   27.42    4.43
 -11  -1   7   36.04    3.73
  11  -1  -6  193.63    9.94
 -11  -1   6  219.27   12.38
  11  -1  -6  192.38    8.34
  11  -1  -6  221.09    9.63
  11  -1  -6  214.69    9.52
  11  -1  -6  197.92    8.36
 -11  -1   5   87.46    7.68
  11  -1  -5   91.11    6.99
  11  -1  -5   92.03    6.11
  11  -1  -5   86.79    5.19
 -11  -1   5   85.76    5.99
  11  -1  -5   85.69    5.63
 -11  -1   4   25.32    4.29
  11  -1  -4   21.67    1.82
  11  -1  -4   28.44    3.90
  11  -1  -4   27.28    3.68
  11  -1  -4   21.65    2.06
 -11  -1   4   22.69    3.02
  11  -1  -4   23.07    2.58
  11  -1  -4   22.14    1.92
 -11  -1   3  188.88   11.79
  11  -1  -3  191.83   10.13
  11  -1  -3  208.51   10.79
 -11  -1   3  196.35    9.18
  11  -1  -3  189.32   10.02
 -11  -1   2  230.40   13.20
  11  -1  -2  234.87   10.96
  11  -1  -2  246.63   12.42
 -11  -1   2  233.87   10.05
  11  -1  -2  231.59   10.90
 -11  -1   1   54.48    6.14
  11  -1  -1   58.41    4.59
  11  -1  -1   58.15    5.82
 -11  -1   1   57.91    4.28
  11  -1  -1   58.83    4.67
 -11  -1   0  173.34   10.93
 -11  -1   0  170.89    8.02
 -11  -1   0  188.02    8.63
  11  -1   0  178.53    8.32
  11  -1   0  173.35   10.54
  11  -1   0  171.34    8.39
 -11  -1  -1  171.30   10.86
 -11  -1  -1  173.57    8.19
 -11  -1  -1  205.69    9.09
  11  -1   1  192.45   11.21
  11  -1   1  197.37    8.61
 -11  -1  -2  249.23   10.26
 -11  -1  -2  272.92   12.68
 -11  -1  -2  241.96   12.91
 -11  -1  -2  270.65   10.99
  11  -1   2  243.53   13.11
  11  -1   2  241.33    8.87
  11  -1   2  261.31   10.21
 -11  -1  -3   60.90    5.90
 -11  -1  -3   63.66    6.13
 -11  -1  -3   71.06    5.04
  11  -1   3   64.27    6.30
 -11  -1  -3   78.11    4.91
  11  -1   3   69.79    4.38
 -11  -1  -3   66.33    4.66
 -11  -1  -4   83.44    7.11
 -11  -1  -4   91.13    5.90
 -11  -1  -4   83.61    6.57
 -11  -1  -5  153.59   10.31
 -11  -1  -5  168.12    9.29
 -11  -1  -6   60.74    6.24
 -11  -1  -6   59.04    5.11
  11   1  -7   38.87    4.17
  11   1  -7   29.36    3.01
 -11   1   7   27.19    4.68
 -11   1   7   35.99    4.95
  11   1  -6  201.54    8.59
 -11   1   6  223.68   12.98
  11   1  -6  199.87    8.35
 -11   1   6  216.02    8.76
 -11   1   6  211.52   12.53
  11   1  -6  215.96    9.69
  11   1  -6  222.22   11.22
 -11   1   5  100.94    8.42
  11   1  -5   87.84    5.17
  11   1  -5  109.24    8.41
  11   1  -5   93.83    6.68
 -11   1   4   30.90    4.85
  11   1  -4   30.19    2.27
  11   1  -4   24.63    1.79
  11   1  -4   26.41    2.18
  11   1  -4   30.77    4.51
 -11   1   3  224.56   12.91
  11   1  -3  226.27   12.46
 -11   1   2  218.00   12.60
  11   1  -2  237.00   12.45
 -11   1   1   48.85    3.56
 -11   1   1   48.35    5.50
  11   1  -1   44.69    4.94
 -11   1   0  188.94    9.22
 -11   1   0  178.53   10.60
  11   1   0  195.24   10.47
  11   1   0  193.78   11.35
 -11   1   0  183.92   12.19
 -11   1  -1  172.44    9.55
 -11   1  -1  158.17    9.51
 -11   1  -1  170.83    9.89
  11   1   1  172.99    6.66
  11   1   1  173.55   10.42
  11   1   1  177.97    9.63
  11   1   1  186.47   10.90
 -11   1  -1  166.60   11.64
 -11   1  -2  247.23   12.63
 -11   1  -2  239.81   11.71
 -11   1  -2  261.79   12.82
 -11   1  -2  258.50   11.65
  11   1   2  241.45   12.89
  11   1   2  280.12   12.37
  11   1   2  266.66   13.55
 -11   1  -2  245.49   14.55
 -11   1  -3   44.79    5.19
 -11   1  -3   50.79    4.45
 -11   1  -3   48.42    5.05
 -11   1  -3   53.80    4.11
  11   1   3   50.54    4.71
  11   1   3   56.12    5.62
 -11   1  -3   51.96    6.38
 -11   1  -4   85.81    7.30
 -11   1  -4   89.25    5.28
 -11   1  -4   85.29    4.17
  11   1   4   91.33    6.23
 -11   1  -4   76.03    7.76
 -11   1  -5  175.67   11.23
  11   1   5  178.47   10.08
  11   1   5  179.45    9.16
 -11   1  -5  180.96   12.12
 -11   1  -6   58.45    6.22
  11   1   6   61.06    5.39
 -11   1  -6   57.57    6.72
  11   3  -5  228.59   10.16
  11   3  -5  241.66   10.16
  11   3  -4   16.17    2.22
  11   3  -4   16.12    2.41
 -11   3   4   15.65    2.11
 -11   3   4   15.04    3.50
  11   3  -4   13.33    3.53
  11   3  -4   14.78    1.28
 -11   3   3    4.37    1.19
  11   3  -3    1.87    0.86
  11   3  -3    1.89    1.14
  11   3  -3    2.26    1.14
 -11   3   3    1.77    1.04
 -11   3   3    1.50    2.17
  11   3  -3    0.99    2.20
  11   3  -2  424.13   12.98
 -11   3   2  410.53   17.83
  11   3  -2  406.56   12.99
 -11   3   2  379.64   14.72
  11   3  -2  390.83   14.12
 -11   3   1    0.20    1.24
  11   3  -1    1.86    1.14
  11   3  -1    0.30    0.60
  11   3  -1    0.60    0.64
  11   3  -1    1.09    0.66
 -11   3   1    0.52    1.80
  11   3  -1    0.91    2.03
  11   3   0   42.28    2.25
 -11   3   0   40.59    2.20
  11   3   0   36.36    2.13
  11   3   0   36.14    2.15
 -11   3   0   42.25    4.58
  11   3   0   39.00    4.86
  11   3   0   41.40    4.82
 -11   3   0   38.94    4.24
  11   3   0   39.39    3.79
  11   3   1  231.05    7.87
 -11   3  -1  247.25    7.89
 -11   3  -1  233.65   11.05
  11   3   1  252.69    9.19
  11   3   1  269.25   13.08
  11   3   1  265.51   12.82
 -11   3  -1  253.55   13.81
  11   3   1  239.68    7.93
 -11   3  -1  224.72   11.93
  11   3   1  237.70   11.08
  11   3   2   33.53    2.03
 -11   3  -2   32.83    3.37
  11   3   2   30.95    4.32
  11   3   2   38.63    4.49
 -11   3  -2   31.81    4.72
  11   3   2   34.26    3.88
 -11   3  -3   72.45    4.31
  11   3   3   68.82    6.03
 -11   3  -3   74.92    7.20
 -11   3  -3   60.88    6.07
  11   3   4  119.55    5.52
  11   3   4  132.59    8.33
 -11   3  -4  125.69    9.54
 -11   3  -4  118.79    8.71
 -11   3  -5   11.80    2.94
  11   3   5   14.40    1.86
  11   3   5    9.89    2.45
  11   3   5   11.89    2.63
 -11   3  -5   14.37    3.52
 -11   5   1   73.72    5.98
  11   5   0   87.00    4.91
 -11   5   0   84.59    6.07
  11   5   0   91.79    6.37
 -12  -4   1   78.88    7.31
  12  -4  -1   90.74    6.31
  12  -4  -1   82.54    4.14
  12  -4  -1   92.56    6.39
 -12  -4   0  131.36    8.30
 -12  -4   0  110.57    8.87
  12  -4   0  122.56    7.27
  12  -4   0  134.50    7.83
 -12  -4  -1   69.41    5.89
  12  -4   1   64.86    4.86
  12  -4   1   73.39    5.64
 -12  -2   5   10.43    3.03
 -12  -2   5   11.77    2.12
  12  -2  -5    9.53    2.44
 -12  -2   5    9.18    2.37
 -12  -2   4  194.81   11.59
  12  -2  -4  201.70   10.23
  12  -2  -4  162.07    6.14
  12  -2  -4  183.29    6.53
 -12  -2   4  196.86    9.46
  12  -2  -4  185.50    9.12
 -12  -2   3   69.51    6.77
  12  -2  -3   71.48    5.67
 -12  -2   3   73.82    5.39
  12  -2  -3   69.70    4.97
 -12  -2   2  111.78    8.59
  12  -2  -2   98.39    6.55
 -12  -2   2  105.92    6.50
  12  -2  -2  109.65    5.94
 -12  -2   1  146.87   10.01
 -12  -2   1  145.25    7.87
  12  -2  -1  142.71    7.76
  12  -2  -1  140.03    6.59
  12  -2  -1  148.79    9.21
 -12  -2   0   64.46    6.56
 -12  -2   0   68.78    5.16
  12  -2   0   64.11    4.74
  12  -2   0   69.59    3.88
  12  -2   0   72.89    6.22
 -12  -2  -1  160.77    8.34
 -12  -2  -1  153.83   10.26
  12  -2   1  165.14    6.31
  12  -2   1  170.64    9.86
 -12  -2  -1  146.49   10.61
 -12  -2  -2   39.89    3.95
 -12  -2  -2   35.35    4.87
 -12  -2  -2   55.41    4.41
  12  -2   2   39.93    4.60
 -12  -2  -2   38.34    5.31
 -12  -2  -3   54.45    5.78
 -12  -2  -3   57.69    6.34
 -12  -2  -3   53.31    4.55
 -12  -2  -4  228.72   12.13
 -12  -2  -4  243.10   13.89
 -12   0   6  124.13    9.15
  12   0  -6  129.10    7.24
  12   0  -6  120.14    6.01
 -12   0   5   45.01    5.49
  12   0  -5   40.45    4.21
  12   0  -5   41.98    2.60
  12   0  -5   44.16    4.98
  12   0  -5   38.65    2.31
 -12   0   4    2.54    2.58
  12   0  -4    4.79    2.05
  12   0  -4    0.77    1.93
 -12   0   3  340.09   16.65
  12   0  -3  373.42   15.76
  12   0  -3  348.11   15.42
 -12   0   2    0.92    2.37
  12   0  -2    0.80    1.81
  12   0  -2    0.18    1.22
  12   0  -2    0.45    1.39
 -12   0   1    1.19    2.12
  12   0  -1    1.12    1.82
  12   0  -1    1.05    1.17
  12   0  -1    2.31    1.73
  12   0  -1    5.13    2.39
 -12   0   0  437.17   18.84
 -12   0   0  463.82   17.40
  12   0   0  452.14   15.25
  12   0   0  418.64   18.71
  12   0   0  478.08   17.28
  12   0   0  483.21   19.63
 -12   0   0  420.89   20.47
 -12   0  -1   16.48    2.63
 -12   0  -1   15.09    3.17
 -12   0  -1   12.33    2.43
  12   0   1   13.58    1.68
  12   0   1   19.36    3.59
  12   0   1   13.90    2.40
  12   0   1   12.61    2.89
 -12   0  -1   21.22    4.36
 -12   0  -2   99.42    6.89
 -12   0  -2   90.27    6.85
 -12   0  -2   98.74    6.50
  12   0   2   83.64    7.03
  12   0   2   95.23    5.89
  12   0   2   88.54    7.21
 -12   0  -2   95.29    8.61
 -12   0  -3  252.49   12.72
 -12   0  -3  252.26   11.96
 -12   0  -3  264.63   11.82
  12   0   3  240.58   12.67
  12   0   3  256.97   10.77
  12   0   3  263.85   13.17
 -12   0  -3  243.86   14.54
 -12   0  -4   41.79    4.90
 -12   0  -4   44.33    4.34
 -12   0  -4   38.83    4.11
  12   0   4   39.02    3.55
 -12   0  -4   40.20    5.50
 -12   0  -5  113.96    8.39
  12   0   5  127.90    8.29
 -12   0  -5  115.17    9.51
 -12   2   5    8.44    3.01
  12   2  -5    8.67    1.55
 -12   2   5    9.76    3.06
  12   2  -5   11.47    3.15
  12   2  -4  173.52    6.20
 -12   2   4  187.84   11.31
 -12   2   4  191.80   11.48
  12   2  -4  174.85    6.20
  12   2  -4  203.13   11.62
 -12   2   3   84.58    7.26
 -12   2   3   67.58    6.71
  12   2  -3   75.73    6.83
 -12   2   2  125.58    8.90
 -12   2   2  133.65    9.15
  12   2  -2  127.12    8.76
 -12   2   1  123.29    8.57
 -12   2   1  142.92    9.14
  12   2  -1  136.97    8.91
  12   2  -1  138.54    9.29
 -12   2   0   66.89    5.25
 -12   2   0   68.39    5.94
 -12   2   0   76.88    6.14
  12   2   0   76.79    6.34
  12   2   0   74.35    6.48
 -12   2  -1  171.25    9.54
  12   2   1  199.16    6.88
 -12   2  -1  188.81    9.69
  12   2   1  191.46   10.22
  12   2   1  196.62   10.94
 -12   2  -1  171.62   11.61
 -12   2  -1  150.01    9.15
 -12   2  -2   36.93    3.79
  12   2   2   32.95    4.17
 -12   2  -2   35.33    3.59
  12   2   2   34.45    4.03
  12   2   2   38.13    4.62
 -12   2  -2   40.44    5.49
 -12   2  -2   31.73    4.06
  12   2   3   60.52    5.28
  12   2   3   62.28    5.79
 -12   2  -3   61.21    6.75
 -12   2  -3   58.82    5.73
 -12   2  -4  230.62   12.61
  12   2   4  239.22   12.03
  12   2   4  250.47   11.65
 -12   2  -4  240.84   14.03
  12   4  -1   89.02    4.10
 -12   4   1   98.85    6.87
  12   4  -1  102.81    7.80
  12   4  -1   95.81    7.11
 -12   4   1   92.80    6.39
  12   4   0  125.21    5.07
 -12   4   0  132.15    7.75
  12   4   0  152.11    9.40
  12   4   0  143.08    8.57
 -12   4   0  124.96    8.02
  12   4   0  125.81    7.09
  12   4   1   64.99    3.25
  12   4   1   71.23    6.24
  12   4   1   70.81    5.91
 -12   4  -1   69.40    6.52
 -12   4  -1   63.03    5.61
 -13  -1   4   69.60    6.66
  13  -1  -4   75.06    5.70
  13  -1  -4   78.73    5.84
  13  -1  -4   70.60    5.53
 -13  -1   3   52.08    5.70
  13  -1  -3   44.72    4.25
  13  -1  -3   50.68    5.02
  13  -1  -3   48.48    4.42
 -13  -1   2   98.39    7.83
  13  -1  -2   95.81    6.03
  13  -1  -2  102.18    7.36
  13  -1  -2   98.79    6.15
 -13  -1   1  138.27    9.25
  13  -1  -1  130.43    6.84
  13  -1  -1  126.14    8.54
  13  -1  -1  128.35    6.86
  13  -1  -1  136.73    8.99
 -13  -1   0  147.96    9.79
  13  -1   0  164.63    7.33
  13  -1   0  146.30    9.46
  13  -1   0  164.44    7.57
  13  -1   0  151.61    9.54
 -13  -1  -1   35.28    4.60
  13  -1   1   38.88    4.80
  13  -1   1   35.02    3.06
  13  -1   2  104.81    7.80
  13  -1   2  100.94    5.27
 -13  -1  -3  201.67   10.67
  13  -1   3  194.48    7.97
 -13   1   4   73.35    6.94
  13   1  -4   79.25    6.25
  13   1  -4   83.70    6.86
  13   1  -3   53.11    5.20
  13   1  -3   58.69    5.54
 -13   1   2  103.15    7.94
  13   1  -2  102.28    7.57
  13   1  -2  111.88    7.46
 -13   1   1  134.44    8.90
  13   1  -1  149.87    6.98
 -13   1   1  134.27    9.09
  13   1  -1  135.95    8.91
  13   1  -1  141.40    8.38
  13   1  -1  144.91    9.44
 -13   1   0  164.94    7.66
 -13   1   0  151.43    9.32
  13   1   0  156.03    6.59
 -13   1   0  149.47    9.33
  13   1   0  152.10    9.63
  13   1   0  170.82    8.97
  13   1   0  158.44    9.79
 -13   1  -1   37.08    3.76
 -13   1  -1   38.39    4.42
 -13   1  -1   44.07    4.58
  13   1   1   38.70    4.70
  13   1   1   35.87    3.85
  13   1   1   38.60    4.62
 -13   1  -1   37.64    5.38
 -13   1  -2   93.42    6.64
 -13   1  -2  101.28    6.61
 -13   1  -2  100.04    6.27
  13   1   2   79.34    6.78
  13   1   2   86.68    5.99
  13   1   2   95.53    7.25
 -13   1  -2   90.29    8.22
 -13   1  -3  188.80   10.41
  13   1   3  188.61   10.62
  13   1   3  196.86    9.37
  13   1   3  193.42   10.70
 -13   1  -3  169.93   11.72
   0   0   0    0.00    0.00


TITL 033 in C2
REM C2 (#5 in standard setting)
CELL 0.71073  11.129792   6.575141   9.249521  90.0000  91.3810  90.0000
ZERR    2.00   0.000422   0.000242   0.000340   0.0000   0.0034   0.0000
LATT -7
SYMM -x, y,-z
SFAC B O Sr La
UNIT 20.00 38.00 2.00 4.00
TREF
HKLF 4
END
_computing_structure_solution     'SHELXT 2018/2 (Sheldrick, 2018)'
;
_shelx_hkl_checksum              80028

